Program Version,EnergyPlus, Version 9.1.0-08d2e308bb, YMD=2019.11.20 15:57
! This file shows details about the branches, nodes, and other
! elements of the flow connections.
! This file is intended for use in "debugging" potential problems
! that may also be detected by the program, but may be more easily
! identified by "eye".
! This file is also intended to support software which draws a
! schematic diagram of the HVAC system.
! ===============================================================
! #Nodes,<Number of Unique Nodes>
 #Nodes,135
! <Node>,<NodeNumber>,<Node Name>,<Node Fluid Type>,<# Times Node Referenced After Definition>
 Node,1,SPACE1-1 SUPPLY INLET,Air,3
 Node,2,SPACE1-1 DOAS SUPPLY INLET,Air,3
 Node,3,SPACE2-1 SUPPLY INLET,Air,3
 Node,4,SPACE2-1 DOAS SUPPLY INLET,Air,3
 Node,5,SPACE3-1 SUPPLY INLET,Air,3
 Node,6,SPACE3-1 DOAS SUPPLY INLET,Air,3
 Node,7,SPACE4-1 SUPPLY INLET,Air,3
 Node,8,SPACE4-1 DOAS SUPPLY INLET,Air,3
 Node,9,SPACE5-1 SUPPLY INLET,Air,3
 Node,10,SPACE5-1 DOAS SUPPLY INLET,Air,3
 Node,11,DOAS COOLING COIL OUTLET,Air,6
 Node,12,MAIN BOILER HW OUTLET,Water,3
 Node,13,HOT WATER LOOP HW SUPPLY OUTLET,Water,5
 Node,14,MAIN CHILLER CHW OUTLET,Water,3
 Node,15,CHILLED WATER LOOP CHW SUPPLY OUTLET,Water,5
 Node,16,MAIN TOWER CNDW OUTLET,Water,3
 Node,17,CHILLED WATER LOOP CNDW SUPPLY OUTLET,Water,5
 Node,18,SPACE1-1 COOLING COIL CHW INLET,Water,1
 Node,19,SPACE1-1 COOLING COIL CHW OUTLET,Water,1
 Node,20,SPACE1-1 HEATING COIL HW INLET,Water,1
 Node,21,SPACE1-1 HEATING COIL HW OUTLET,Water,1
 Node,22,SPACE2-1 COOLING COIL CHW INLET,Water,1
 Node,23,SPACE2-1 COOLING COIL CHW OUTLET,Water,1
 Node,24,SPACE2-1 HEATING COIL HW INLET,Water,1
 Node,25,SPACE2-1 HEATING COIL HW OUTLET,Water,1
 Node,26,SPACE3-1 COOLING COIL CHW INLET,Water,1
 Node,27,SPACE3-1 COOLING COIL CHW OUTLET,Water,1
 Node,28,SPACE3-1 HEATING COIL HW INLET,Water,1
 Node,29,SPACE3-1 HEATING COIL HW OUTLET,Water,1
 Node,30,SPACE4-1 COOLING COIL CHW INLET,Water,1
 Node,31,SPACE4-1 COOLING COIL CHW OUTLET,Water,1
 Node,32,SPACE4-1 HEATING COIL HW INLET,Water,1
 Node,33,SPACE4-1 HEATING COIL HW OUTLET,Water,1
 Node,34,SPACE5-1 COOLING COIL CHW INLET,Water,1
 Node,35,SPACE5-1 COOLING COIL CHW OUTLET,Water,1
 Node,36,SPACE5-1 HEATING COIL HW INLET,Water,1
 Node,37,SPACE5-1 HEATING COIL HW OUTLET,Water,1
 Node,38,DOAS AIR LOOP INLET,Air,3
 Node,39,DOAS MIXED AIR OUTLET,Air,5
 Node,40,DOAS HEATING COIL OUTLET,Air,9
 Node,41,DOAS SUPPLY FAN OUTLET,Air,9
 Node,42,DOAS COOLING COIL CHW INLET,Water,2
 Node,43,DOAS COOLING COIL CHW OUTLET,Water,1
 Node,44,DOAS HEATING COIL HW INLET,Water,2
 Node,45,DOAS HEATING COIL HW OUTLET,Water,1
 Node,46,MAIN BOILER HW INLET,Water,1
 Node,47,MAIN CHILLER CHW INLET,Water,1
 Node,48,MAIN CHILLER CND INLET,Water,1
 Node,49,MAIN CHILLER CND OUTLET,Water,1
 Node,50,MAIN TOWER CNDW INLET,Water,1
 Node,51,HOT WATER LOOP HW SUPPLY BYPASS INLET,Water,1
 Node,52,HOT WATER LOOP HW SUPPLY BYPASS OUTLET,Water,1
 Node,53,HOT WATER LOOP HW SUPPLY INLET,Water,2
 Node,54,HOT WATER LOOP HW PUMP OUTLET,Water,1
 Node,55,HOT WATER LOOP HW SUPPLY OUTLET PIPE INLET,Water,1
 Node,56,HOT WATER LOOP HW DEMAND INLET,Water,2
 Node,57,HOT WATER LOOP HW DEMAND INLET PIPE OUTLET,Water,1
 Node,58,HOT WATER LOOP HW DEMAND BYPASS INLET,Water,1
 Node,59,HOT WATER LOOP HW DEMAND BYPASS OUTLET,Water,1
 Node,60,HOT WATER LOOP HW DEMAND OUTLET PIPE INLET,Water,1
 Node,61,HOT WATER LOOP HW DEMAND OUTLET,Water,2
 Node,62,CHILLED WATER LOOP CHW SUPPLY BYPASS INLET,Water,1
 Node,63,CHILLED WATER LOOP CHW SUPPLY BYPASS OUTLET,Water,1
 Node,64,CHILLED WATER LOOP CHW SUPPLY INLET,Water,2
 Node,65,CHILLED WATER LOOP CHW PUMP OUTLET,Water,1
 Node,66,CHILLED WATER LOOP CHW SUPPLY OUTLET PIPE INLET,Water,1
 Node,67,CHILLED WATER LOOP CHW DEMAND INLET,Water,2
 Node,68,CHILLED WATER LOOP CHW DEMAND INLET PIPE OUTLET,Water,1
 Node,69,CHILLED WATER LOOP CHW DEMAND BYPASS INLET,Water,1
 Node,70,CHILLED WATER LOOP CHW DEMAND BYPASS OUTLET,Water,1
 Node,71,CHILLED WATER LOOP CHW DEMAND OUTLET PIPE INLET,Water,1
 Node,72,CHILLED WATER LOOP CHW DEMAND OUTLET,Water,2
 Node,73,CHILLED WATER LOOP CNDW SUPPLY INLET,Water,2
 Node,74,CHILLED WATER LOOP CNDW PUMP OUTLET,Water,1
 Node,75,CHILLED WATER LOOP CNDW SUPPLY OUTLET PIPE INLET,Water,1
 Node,76,CHILLED WATER LOOP CNDW SUPPLY BYPASS INLET,Water,1
 Node,77,CHILLED WATER LOOP CNDW SUPPLY BYPASS OUTLET,Water,1
 Node,78,CHILLED WATER LOOP CNDW DEMAND INLET,Water,2
 Node,79,CHILLED WATER LOOP CNDW DEMAND INLET PIPE OUTLET,Water,1
 Node,80,CHILLED WATER LOOP CNDW DEMAND BYPASS INLET,Water,1
 Node,81,CHILLED WATER LOOP CNDW DEMAND BYPASS OUTLET,Water,1
 Node,82,CHILLED WATER LOOP CNDW DEMAND OUTLET PIPE INLET,Water,1
 Node,83,CHILLED WATER LOOP CNDW DEMAND OUTLET,Water,2
 Node,84,SPACE1-1 ZONE AIR NODE,Air,0
 Node,85,SPACE1-1 FAN COIL RETURN,Air,2
 Node,86,SPACE1-1 RETURN OUTLET,Air,1
 Node,87,SPACE2-1 ZONE AIR NODE,Air,0
 Node,88,SPACE2-1 FAN COIL RETURN,Air,2
 Node,89,SPACE2-1 RETURN OUTLET,Air,1
 Node,90,SPACE3-1 ZONE AIR NODE,Air,0
 Node,91,SPACE3-1 FAN COIL RETURN,Air,2
 Node,92,SPACE3-1 RETURN OUTLET,Air,1
 Node,93,SPACE4-1 ZONE AIR NODE,Air,0
 Node,94,SPACE4-1 FAN COIL RETURN,Air,2
 Node,95,SPACE4-1 RETURN OUTLET,Air,1
 Node,96,SPACE5-1 ZONE AIR NODE,Air,0
 Node,97,SPACE5-1 FAN COIL RETURN,Air,2
 Node,98,SPACE5-1 RETURN OUTLET,Air,1
 Node,99,DOAS SUPPLY PATH INLET,Air,5
 Node,100,DOAS RETURN AIR OUTLET,Air,2
 Node,101,SPACE1-1 OUTSIDE AIR INLET,Air,1
 Node,102,SPACE2-1 OUTSIDE AIR INLET,Air,1
 Node,103,SPACE3-1 OUTSIDE AIR INLET,Air,1
 Node,104,SPACE4-1 OUTSIDE AIR INLET,Air,1
 Node,105,SPACE5-1 OUTSIDE AIR INLET,Air,1
 Node,106,DOAS OUTDOOR AIR INLET,Air,2
 Node,107,MAIN TOWER COOLING TOWER OUTDOOR AIR INLET NODE,Air,1
 Node,108,DOAS HEAT RECOVERY SUPPLY OUTLET,Air,2
 Node,109,SPACE1-1 ZONE EQUIP INLET,Air,1
 Node,110,SPACE2-1 ZONE EQUIP INLET,Air,1
 Node,111,SPACE3-1 ZONE EQUIP INLET,Air,1
 Node,112,SPACE4-1 ZONE EQUIP INLET,Air,1
 Node,113,SPACE5-1 ZONE EQUIP INLET,Air,1
 Node,114,SPACE1-1 MIXED AIR OUTLET,Air,1
 Node,115,SPACE1-1 RELIEF AIR OUTLET,Air,0
 Node,116,SPACE2-1 MIXED AIR OUTLET,Air,1
 Node,117,SPACE2-1 RELIEF AIR OUTLET,Air,0
 Node,118,SPACE3-1 MIXED AIR OUTLET,Air,1
 Node,119,SPACE3-1 RELIEF AIR OUTLET,Air,0
 Node,120,SPACE4-1 MIXED AIR OUTLET,Air,1
 Node,121,SPACE4-1 RELIEF AIR OUTLET,Air,0
 Node,122,SPACE5-1 MIXED AIR OUTLET,Air,1
 Node,123,SPACE5-1 RELIEF AIR OUTLET,Air,0
 Node,124,DOAS RELIEF AIR OUTLET,Air,2
 Node,125,SPACE1-1 COOLING COIL OUTLET,Air,1
 Node,126,SPACE2-1 COOLING COIL OUTLET,Air,1
 Node,127,SPACE3-1 COOLING COIL OUTLET,Air,1
 Node,128,SPACE4-1 COOLING COIL OUTLET,Air,1
 Node,129,SPACE5-1 COOLING COIL OUTLET,Air,1
 Node,130,SPACE1-1 SUPPLY FAN OUTLET,Air,1
 Node,131,SPACE2-1 SUPPLY FAN OUTLET,Air,1
 Node,132,SPACE3-1 SUPPLY FAN OUTLET,Air,1
 Node,133,SPACE4-1 SUPPLY FAN OUTLET,Air,1
 Node,134,SPACE5-1 SUPPLY FAN OUTLET,Air,1
 Node,135,DOAS HEAT RECOVERY RELIEF OUTLET,Air,0
! ===============================================================
! Suspicious nodes have 0 references.  It is normal for some nodes, however.
! Listing nodes with 0 references (culled from previous list):
! <Suspicious Node>,<NodeNumber>,<Node Name>,<Node Fluid Type>,<# Times Node Referenced After Definition>
 Suspicious Node,84,SPACE1-1 ZONE AIR NODE,Air,0
 Suspicious Node,87,SPACE2-1 ZONE AIR NODE,Air,0
 Suspicious Node,90,SPACE3-1 ZONE AIR NODE,Air,0
 Suspicious Node,93,SPACE4-1 ZONE AIR NODE,Air,0
 Suspicious Node,96,SPACE5-1 ZONE AIR NODE,Air,0
 Suspicious Node,115,SPACE1-1 RELIEF AIR OUTLET,Air,0
 Suspicious Node,117,SPACE2-1 RELIEF AIR OUTLET,Air,0
 Suspicious Node,119,SPACE3-1 RELIEF AIR OUTLET,Air,0
 Suspicious Node,121,SPACE4-1 RELIEF AIR OUTLET,Air,0
 Suspicious Node,123,SPACE5-1 RELIEF AIR OUTLET,Air,0
 Suspicious Node,135,DOAS HEAT RECOVERY RELIEF OUTLET,Air,0
! ===============================================================
! <#Branch Lists>,<Number of Branch Lists>
 #Branch Lists,7
! <Branch List>,<Branch List Count>,<Branch List Name>,<Loop Name>,<Loop Type>,<Number of Branches>
! <Branch>,<Branch Count>,<Branch Name>,<Loop Name>,<Loop Type>,<Branch Inlet Node Name>,<Branch Outlet Node Name>
 Branch List,1,DOAS BRANCHES,DOAS,Air,1
   Branch,1,DOAS MAIN BRANCH,DOAS,Air,DOAS AIR LOOP INLET,DOAS SUPPLY FAN OUTLET
 Branch List,2,HOT WATER LOOP HW SUPPLY SIDE BRANCHES,HOT WATER LOOP HOT WATER LOOP,Plant Supply,4
   Branch,1,HOT WATER LOOP HW SUPPLY INLET BRANCH,HOT WATER LOOP HOT WATER LOOP,Plant Supply,HOT WATER LOOP HW SUPPLY INLET,HOT WATER LOOP HW PUMP OUTLET
   Branch,2,MAIN BOILER HW BRANCH,HOT WATER LOOP HOT WATER LOOP,Plant Supply,MAIN BOILER HW INLET,MAIN BOILER HW OUTLET
   Branch,3,HOT WATER LOOP HW SUPPLY BYPASS BRANCH,HOT WATER LOOP HOT WATER LOOP,Plant Supply,HOT WATER LOOP HW SUPPLY BYPASS INLET,HOT WATER LOOP HW SUPPLY BYPASS OUTLET
   Branch,4,HOT WATER LOOP HW SUPPLY OUTLET BRANCH,HOT WATER LOOP HOT WATER LOOP,Plant Supply,HOT WATER LOOP HW SUPPLY OUTLET PIPE INLET,HOT WATER LOOP HW SUPPLY OUTLET
 Branch List,3,HOT WATER LOOP HW DEMAND SIDE BRANCHES,HOT WATER LOOP HOT WATER LOOP,Plant Demand,9
   Branch,1,HOT WATER LOOP HW DEMAND INLET BRANCH,HOT WATER LOOP HOT WATER LOOP,Plant Demand,HOT WATER LOOP HW DEMAND INLET,HOT WATER LOOP HW DEMAND INLET PIPE OUTLET
   Branch,2,SPACE1-1 HEATING COIL HW BRANCH,HOT WATER LOOP HOT WATER LOOP,Plant Demand,SPACE1-1 HEATING COIL HW INLET,SPACE1-1 HEATING COIL HW OUTLET
   Branch,3,SPACE2-1 HEATING COIL HW BRANCH,HOT WATER LOOP HOT WATER LOOP,Plant Demand,SPACE2-1 HEATING COIL HW INLET,SPACE2-1 HEATING COIL HW OUTLET
   Branch,4,SPACE3-1 HEATING COIL HW BRANCH,HOT WATER LOOP HOT WATER LOOP,Plant Demand,SPACE3-1 HEATING COIL HW INLET,SPACE3-1 HEATING COIL HW OUTLET
   Branch,5,SPACE4-1 HEATING COIL HW BRANCH,HOT WATER LOOP HOT WATER LOOP,Plant Demand,SPACE4-1 HEATING COIL HW INLET,SPACE4-1 HEATING COIL HW OUTLET
   Branch,6,SPACE5-1 HEATING COIL HW BRANCH,HOT WATER LOOP HOT WATER LOOP,Plant Demand,SPACE5-1 HEATING COIL HW INLET,SPACE5-1 HEATING COIL HW OUTLET
   Branch,7,DOAS HEATING COIL HW BRANCH,HOT WATER LOOP HOT WATER LOOP,Plant Demand,DOAS HEATING COIL HW INLET,DOAS HEATING COIL HW OUTLET
   Branch,8,HOT WATER LOOP HW DEMAND BYPASS BRANCH,HOT WATER LOOP HOT WATER LOOP,Plant Demand,HOT WATER LOOP HW DEMAND BYPASS INLET,HOT WATER LOOP HW DEMAND BYPASS OUTLET
   Branch,9,HOT WATER LOOP HW DEMAND OUTLET BRANCH,HOT WATER LOOP HOT WATER LOOP,Plant Demand,HOT WATER LOOP HW DEMAND OUTLET PIPE INLET,HOT WATER LOOP HW DEMAND OUTLET
 Branch List,4,CHILLED WATER LOOP CHW SUPPLY SIDE BRANCHES,CHILLED WATER LOOP CHILLED WATER LOOP,Plant Supply,4
   Branch,1,CHILLED WATER LOOP CHW SUPPLY INLET BRANCH,CHILLED WATER LOOP CHILLED WATER LOOP,Plant Supply,CHILLED WATER LOOP CHW SUPPLY INLET,CHILLED WATER LOOP CHW PUMP OUTLET
   Branch,2,MAIN CHILLER CHW BRANCH,CHILLED WATER LOOP CHILLED WATER LOOP,Plant Supply,MAIN CHILLER CHW INLET,MAIN CHILLER CHW OUTLET
   Branch,3,CHILLED WATER LOOP CHW SUPPLY BYPASS BRANCH,CHILLED WATER LOOP CHILLED WATER LOOP,Plant Supply,CHILLED WATER LOOP CHW SUPPLY BYPASS INLET,CHILLED WATER LOOP CHW SUPPLY BYPASS OUTLET
   Branch,4,CHILLED WATER LOOP CHW SUPPLY OUTLET BRANCH,CHILLED WATER LOOP CHILLED WATER LOOP,Plant Supply,CHILLED WATER LOOP CHW SUPPLY OUTLET PIPE INLET,CHILLED WATER LOOP CHW SUPPLY OUTLET
 Branch List,5,CHILLED WATER LOOP CHW DEMAND SIDE BRANCHES,CHILLED WATER LOOP CHILLED WATER LOOP,Plant Demand,9
   Branch,1,CHILLED WATER LOOP CHW DEMAND INLET BRANCH,CHILLED WATER LOOP CHILLED WATER LOOP,Plant Demand,CHILLED WATER LOOP CHW DEMAND INLET,CHILLED WATER LOOP CHW DEMAND INLET PIPE OUTLET
   Branch,2,SPACE1-1 COOLING COIL CHW BRANCH,CHILLED WATER LOOP CHILLED WATER LOOP,Plant Demand,SPACE1-1 COOLING COIL CHW INLET,SPACE1-1 COOLING COIL CHW OUTLET
   Branch,3,SPACE2-1 COOLING COIL CHW BRANCH,CHILLED WATER LOOP CHILLED WATER LOOP,Plant Demand,SPACE2-1 COOLING COIL CHW INLET,SPACE2-1 COOLING COIL CHW OUTLET
   Branch,4,SPACE3-1 COOLING COIL CHW BRANCH,CHILLED WATER LOOP CHILLED WATER LOOP,Plant Demand,SPACE3-1 COOLING COIL CHW INLET,SPACE3-1 COOLING COIL CHW OUTLET
   Branch,5,SPACE4-1 COOLING COIL CHW BRANCH,CHILLED WATER LOOP CHILLED WATER LOOP,Plant Demand,SPACE4-1 COOLING COIL CHW INLET,SPACE4-1 COOLING COIL CHW OUTLET
   Branch,6,SPACE5-1 COOLING COIL CHW BRANCH,CHILLED WATER LOOP CHILLED WATER LOOP,Plant Demand,SPACE5-1 COOLING COIL CHW INLET,SPACE5-1 COOLING COIL CHW OUTLET
   Branch,7,DOAS COOLING COIL CHW BRANCH,CHILLED WATER LOOP CHILLED WATER LOOP,Plant Demand,DOAS COOLING COIL CHW INLET,DOAS COOLING COIL CHW OUTLET
   Branch,8,CHILLED WATER LOOP CHW DEMAND BYPASS BRANCH,CHILLED WATER LOOP CHILLED WATER LOOP,Plant Demand,CHILLED WATER LOOP CHW DEMAND BYPASS INLET,CHILLED WATER LOOP CHW DEMAND BYPASS OUTLET
   Branch,9,CHILLED WATER LOOP CHW DEMAND OUTLET BRANCH,CHILLED WATER LOOP CHILLED WATER LOOP,Plant Demand,CHILLED WATER LOOP CHW DEMAND OUTLET PIPE INLET,CHILLED WATER LOOP CHW DEMAND OUTLET
 Branch List,6,CHILLED WATER LOOP CNDW SUPPLY SIDE BRANCHES,CHILLED WATER LOOP CONDENSER WATER LOOP,Condenser Supply,4
   Branch,1,CHILLED WATER LOOP CNDW SUPPLY INLET BRANCH,CHILLED WATER LOOP CONDENSER WATER LOOP,Condenser Supply,CHILLED WATER LOOP CNDW SUPPLY INLET,CHILLED WATER LOOP CNDW PUMP OUTLET
   Branch,2,MAIN TOWER CNDW BRANCH,CHILLED WATER LOOP CONDENSER WATER LOOP,Condenser Supply,MAIN TOWER CNDW INLET,MAIN TOWER CNDW OUTLET
   Branch,3,CHILLED WATER LOOP CNDW SUPPLY BYPASS BRANCH,CHILLED WATER LOOP CONDENSER WATER LOOP,Condenser Supply,CHILLED WATER LOOP CNDW SUPPLY BYPASS INLET,CHILLED WATER LOOP CNDW SUPPLY BYPASS OUTLET
   Branch,4,CHILLED WATER LOOP CNDW SUPPLY OUTLET BRANCH,CHILLED WATER LOOP CONDENSER WATER LOOP,Condenser Supply,CHILLED WATER LOOP CNDW SUPPLY OUTLET PIPE INLET,CHILLED WATER LOOP CNDW SUPPLY OUTLET
 Branch List,7,CHILLED WATER LOOP CNDW DEMAND SIDE BRANCHES,CHILLED WATER LOOP CONDENSER WATER LOOP,Condenser Demand,4
   Branch,1,CHILLED WATER LOOP CNDW DEMAND INLET BRANCH,CHILLED WATER LOOP CONDENSER WATER LOOP,Condenser Demand,CHILLED WATER LOOP CNDW DEMAND INLET,CHILLED WATER LOOP CNDW DEMAND INLET PIPE OUTLET
   Branch,2,MAIN CHILLER CNDW BRANCH,CHILLED WATER LOOP CONDENSER WATER LOOP,Condenser Demand,MAIN CHILLER CND INLET,MAIN CHILLER CND OUTLET
   Branch,3,CHILLED WATER LOOP CNDW DEMAND BYPASS BRANCH,CHILLED WATER LOOP CONDENSER WATER LOOP,Condenser Demand,CHILLED WATER LOOP CNDW DEMAND BYPASS INLET,CHILLED WATER LOOP CNDW DEMAND BYPASS OUTLET
   Branch,4,CHILLED WATER LOOP CNDW DEMAND OUTLET BRANCH,CHILLED WATER LOOP CONDENSER WATER LOOP,Condenser Demand,CHILLED WATER LOOP CNDW DEMAND OUTLET PIPE INLET,CHILLED WATER LOOP CNDW DEMAND OUTLET
! ===============================================================
! <#Supply Air Paths>,<Number of Supply Air Paths>
 #Supply Air Paths,1
! <Supply Air Path>,<Supply Air Path Count>,<Supply Air Path Name>,<AirLoopHVAC Name>
! <#Components on Supply Air Path>,<Number of Components>
! <Supply Air Path Component>,<Component Count>,<Component Type>,<Component Name>,<AirLoopHVAC Name>
! <#Outlet Nodes on Supply Air Path Component>,<Number of Nodes>
! <Supply Air Path Component Nodes>,<Node Count>,<Component Type>,<Component Name>,<Inlet Node Name>,<Outlet Node Name>,<AirLoopHVAC Name>
 Supply Air Path,1,DOAS SUPPLY PATH,DOAS
   #Components on Supply Air Path,1
   Supply Air Path Component,1,AIRLOOPHVAC:ZONESPLITTER,DOAS ZONE SPLITTER,DOAS
     #Outlet Nodes on Supply Air Path Component,5
     Supply Air Path Component Nodes,1,AIRLOOPHVAC:ZONESPLITTER,DOAS ZONE SPLITTER,DOAS SUPPLY PATH INLET,SPACE1-1 ZONE EQUIP INLET,DOAS
     Supply Air Path Component Nodes,2,AIRLOOPHVAC:ZONESPLITTER,DOAS ZONE SPLITTER,DOAS SUPPLY PATH INLET,SPACE2-1 ZONE EQUIP INLET,DOAS
     Supply Air Path Component Nodes,3,AIRLOOPHVAC:ZONESPLITTER,DOAS ZONE SPLITTER,DOAS SUPPLY PATH INLET,SPACE3-1 ZONE EQUIP INLET,DOAS
     Supply Air Path Component Nodes,4,AIRLOOPHVAC:ZONESPLITTER,DOAS ZONE SPLITTER,DOAS SUPPLY PATH INLET,SPACE4-1 ZONE EQUIP INLET,DOAS
     Supply Air Path Component Nodes,5,AIRLOOPHVAC:ZONESPLITTER,DOAS ZONE SPLITTER,DOAS SUPPLY PATH INLET,SPACE5-1 ZONE EQUIP INLET,DOAS
! <#Nodes on Supply Air Path>,<Number of Nodes>
! <Supply Air Path Node>,<Node Type>,<Node Count>,<Node Name>,<AirLoopHVAC Name>
#Nodes on Supply Air Path,6
   Supply Air Path Node,Inlet Node,1,DOAS SUPPLY PATH INLET,DOAS
   Supply Air Path Node,Outlet Node,2,SPACE1-1 ZONE EQUIP INLET,DOAS
   Supply Air Path Node,Outlet Node,3,SPACE2-1 ZONE EQUIP INLET,DOAS
   Supply Air Path Node,Outlet Node,4,SPACE3-1 ZONE EQUIP INLET,DOAS
   Supply Air Path Node,Outlet Node,5,SPACE4-1 ZONE EQUIP INLET,DOAS
   Supply Air Path Node,Outlet Node,6,SPACE5-1 ZONE EQUIP INLET,DOAS
! ===============================================================
! <#Return Air Paths>,<Number of Return Air Paths>
 #Return Air Paths,1
! <Return Air Path>,<Return Air Path Count>,<Return Air Path Name>,<AirLoopHVAC Name>
! <#Components on Return Air Path>,<Number of Components>
! <Return Air Path Component>,<Component Count>,<Component Type>,<Component Name>,<AirLoopHVAC Name>
! <#Inlet Nodes on Return Air Path Component>,<Number of Nodes>
! <Return Air Path Component Nodes>,<Node Count>,<Component Type>,<Component Name>,<Inlet Node Name>,<Outlet Node Name>,<AirLoopHVAC Name>
 Return Air Path,1,DOAS RETURN PATH,DOAS
   #Components on Return Air Path,1
   Return Air Path Component,1,AIRLOOPHVAC:ZONEMIXER,DOAS ZONE MIXER,DOAS
     #Inlet Nodes on Return Air Path Component,5
     Return Air Path Component Nodes,1,AIRLOOPHVAC:ZONEMIXER,DOAS ZONE MIXER,SPACE1-1 RETURN OUTLET,DOAS RETURN AIR OUTLET,DOAS
     Return Air Path Component Nodes,2,AIRLOOPHVAC:ZONEMIXER,DOAS ZONE MIXER,SPACE2-1 RETURN OUTLET,DOAS RETURN AIR OUTLET,DOAS
     Return Air Path Component Nodes,3,AIRLOOPHVAC:ZONEMIXER,DOAS ZONE MIXER,SPACE3-1 RETURN OUTLET,DOAS RETURN AIR OUTLET,DOAS
     Return Air Path Component Nodes,4,AIRLOOPHVAC:ZONEMIXER,DOAS ZONE MIXER,SPACE4-1 RETURN OUTLET,DOAS RETURN AIR OUTLET,DOAS
     Return Air Path Component Nodes,5,AIRLOOPHVAC:ZONEMIXER,DOAS ZONE MIXER,SPACE5-1 RETURN OUTLET,DOAS RETURN AIR OUTLET,DOAS
! <#Nodes on Return Air Path>,<Number of Nodes>
! <Return Air Path Node>,<Node Type>,<Node Count>,<Node Name>,<AirLoopHVAC Name>
   #Nodes on Return Air Path,6
   Return Air Path Node,Outlet Node,1,DOAS RETURN AIR OUTLET,DOAS
   Return Air Path Node,Inlet Node,2,SPACE1-1 RETURN OUTLET,DOAS
   Return Air Path Node,Inlet Node,3,SPACE2-1 RETURN OUTLET,DOAS
   Return Air Path Node,Inlet Node,4,SPACE3-1 RETURN OUTLET,DOAS
   Return Air Path Node,Inlet Node,5,SPACE4-1 RETURN OUTLET,DOAS
   Return Air Path Node,Inlet Node,6,SPACE5-1 RETURN OUTLET,DOAS
! ===============================================================
! #Outdoor Air Nodes,<Number of Outdoor Air Nodes>
 #Outdoor Air Nodes,7
! <Outdoor Air Node>,<NodeNumber>,<Node Name>
 Outdoor Air Node,101,SPACE1-1 OUTSIDE AIR INLET
 Outdoor Air Node,102,SPACE2-1 OUTSIDE AIR INLET
 Outdoor Air Node,103,SPACE3-1 OUTSIDE AIR INLET
 Outdoor Air Node,104,SPACE4-1 OUTSIDE AIR INLET
 Outdoor Air Node,105,SPACE5-1 OUTSIDE AIR INLET
 Outdoor Air Node,106,DOAS OUTDOOR AIR INLET
 Outdoor Air Node,107,MAIN TOWER COOLING TOWER OUTDOOR AIR INLET NODE
! ===============================================================
! <#Component Sets>,<Number of Component Sets>
 #Component Sets,65
! <Component Set>,<Component Set Count>,<Parent Object Type>,<Parent Object Name>,<Component Type>,<Component Name>,<Inlet Node ID>,<Outlet Node ID>,<Description>
 Component Set,1,BRANCH,SPACE1-1 COOLING COIL CHW BRANCH,COIL:COOLING:WATER,SPACE1-1 COOLING COIL,SPACE1-1 COOLING COIL CHW INLET,SPACE1-1 COOLING COIL CHW OUTLET,Water Nodes
 Component Set,2,BRANCH,SPACE1-1 HEATING COIL HW BRANCH,COIL:HEATING:WATER,SPACE1-1 HEATING COIL,SPACE1-1 HEATING COIL HW INLET,SPACE1-1 HEATING COIL HW OUTLET,Water Nodes
 Component Set,3,BRANCH,SPACE2-1 COOLING COIL CHW BRANCH,COIL:COOLING:WATER,SPACE2-1 COOLING COIL,SPACE2-1 COOLING COIL CHW INLET,SPACE2-1 COOLING COIL CHW OUTLET,Water Nodes
 Component Set,4,BRANCH,SPACE2-1 HEATING COIL HW BRANCH,COIL:HEATING:WATER,SPACE2-1 HEATING COIL,SPACE2-1 HEATING COIL HW INLET,SPACE2-1 HEATING COIL HW OUTLET,Water Nodes
 Component Set,5,BRANCH,SPACE3-1 COOLING COIL CHW BRANCH,COIL:COOLING:WATER,SPACE3-1 COOLING COIL,SPACE3-1 COOLING COIL CHW INLET,SPACE3-1 COOLING COIL CHW OUTLET,Water Nodes
 Component Set,6,BRANCH,SPACE3-1 HEATING COIL HW BRANCH,COIL:HEATING:WATER,SPACE3-1 HEATING COIL,SPACE3-1 HEATING COIL HW INLET,SPACE3-1 HEATING COIL HW OUTLET,Water Nodes
 Component Set,7,BRANCH,SPACE4-1 COOLING COIL CHW BRANCH,COIL:COOLING:WATER,SPACE4-1 COOLING COIL,SPACE4-1 COOLING COIL CHW INLET,SPACE4-1 COOLING COIL CHW OUTLET,Water Nodes
 Component Set,8,BRANCH,SPACE4-1 HEATING COIL HW BRANCH,COIL:HEATING:WATER,SPACE4-1 HEATING COIL,SPACE4-1 HEATING COIL HW INLET,SPACE4-1 HEATING COIL HW OUTLET,Water Nodes
 Component Set,9,BRANCH,SPACE5-1 COOLING COIL CHW BRANCH,COIL:COOLING:WATER,SPACE5-1 COOLING COIL,SPACE5-1 COOLING COIL CHW INLET,SPACE5-1 COOLING COIL CHW OUTLET,Water Nodes
 Component Set,10,BRANCH,SPACE5-1 HEATING COIL HW BRANCH,COIL:HEATING:WATER,SPACE5-1 HEATING COIL,SPACE5-1 HEATING COIL HW INLET,SPACE5-1 HEATING COIL HW OUTLET,Water Nodes
 Component Set,11,BRANCH,DOAS MAIN BRANCH,AIRLOOPHVAC:OUTDOORAIRSYSTEM,DOAS OA SYSTEM,DOAS AIR LOOP INLET,DOAS MIXED AIR OUTLET,Air Nodes
 Component Set,12,BRANCH,DOAS MAIN BRANCH,COIL:COOLING:WATER,DOAS COOLING COIL,DOAS MIXED AIR OUTLET,DOAS COOLING COIL OUTLET,Air Nodes
 Component Set,13,BRANCH,DOAS MAIN BRANCH,COIL:HEATING:WATER,DOAS HEATING COIL,DOAS COOLING COIL OUTLET,DOAS HEATING COIL OUTLET,Air Nodes
 Component Set,14,BRANCH,DOAS MAIN BRANCH,FAN:VARIABLEVOLUME,DOAS SUPPLY FAN,DOAS HEATING COIL OUTLET,DOAS SUPPLY FAN OUTLET,Air Nodes
 Component Set,15,BRANCH,DOAS COOLING COIL CHW BRANCH,COIL:COOLING:WATER,DOAS COOLING COIL,DOAS COOLING COIL CHW INLET,DOAS COOLING COIL CHW OUTLET,Water Nodes
 Component Set,16,BRANCH,DOAS HEATING COIL HW BRANCH,COIL:HEATING:WATER,DOAS HEATING COIL,DOAS HEATING COIL HW INLET,DOAS HEATING COIL HW OUTLET,Water Nodes
 Component Set,17,BRANCH,MAIN BOILER HW BRANCH,BOILER:HOTWATER,MAIN BOILER,MAIN BOILER HW INLET,MAIN BOILER HW OUTLET,Hot Water Nodes
 Component Set,18,BRANCH,MAIN CHILLER CHW BRANCH,CHILLER:ELECTRIC:EIR,MAIN CHILLER,MAIN CHILLER CHW INLET,MAIN CHILLER CHW OUTLET,Chilled Water Nodes
 Component Set,19,BRANCH,MAIN CHILLER CNDW BRANCH,CHILLER:ELECTRIC:EIR,MAIN CHILLER,MAIN CHILLER CND INLET,MAIN CHILLER CND OUTLET,Condenser Water Nodes
 Component Set,20,BRANCH,MAIN TOWER CNDW BRANCH,COOLINGTOWER:SINGLESPEED,MAIN TOWER,MAIN TOWER CNDW INLET,MAIN TOWER CNDW OUTLET,Chilled Water Nodes
 Component Set,21,BRANCH,HOT WATER LOOP HW SUPPLY BYPASS BRANCH,PIPE:ADIABATIC,HOT WATER LOOP HW SUPPLY SIDE BYPASS PIPE,HOT WATER LOOP HW SUPPLY BYPASS INLET,HOT WATER LOOP HW SUPPLY BYPASS OUTLET,Pipe Nodes
 Component Set,22,BRANCH,HOT WATER LOOP HW SUPPLY INLET BRANCH,PUMP:CONSTANTSPEED,HOT WATER LOOP HW SUPPLY PUMP,HOT WATER LOOP HW SUPPLY INLET,HOT WATER LOOP HW PUMP OUTLET,Water Nodes
 Component Set,23,BRANCH,HOT WATER LOOP HW SUPPLY OUTLET BRANCH,PIPE:ADIABATIC,HOT WATER LOOP HW SUPPLY OUTLET PIPE,HOT WATER LOOP HW SUPPLY OUTLET PIPE INLET,HOT WATER LOOP HW SUPPLY OUTLET,Pipe Nodes
 Component Set,24,BRANCH,HOT WATER LOOP HW DEMAND INLET BRANCH,PIPE:ADIABATIC,HOT WATER LOOP HW DEMAND INLET PIPE,HOT WATER LOOP HW DEMAND INLET,HOT WATER LOOP HW DEMAND INLET PIPE OUTLET,Pipe Nodes
 Component Set,25,BRANCH,HOT WATER LOOP HW DEMAND BYPASS BRANCH,PIPE:ADIABATIC,HOT WATER LOOP HW DEMAND SIDE BYPASS PIPE,HOT WATER LOOP HW DEMAND BYPASS INLET,HOT WATER LOOP HW DEMAND BYPASS OUTLET,Pipe Nodes
 Component Set,26,BRANCH,HOT WATER LOOP HW DEMAND OUTLET BRANCH,PIPE:ADIABATIC,HOT WATER LOOP HW DEMAND OUTLET PIPE,HOT WATER LOOP HW DEMAND OUTLET PIPE INLET,HOT WATER LOOP HW DEMAND OUTLET,Pipe Nodes
 Component Set,27,BRANCH,CHILLED WATER LOOP CHW SUPPLY BYPASS BRANCH,PIPE:ADIABATIC,CHILLED WATER LOOP CHW SUPPLY SIDE BYPASS PIPE,CHILLED WATER LOOP CHW SUPPLY BYPASS INLET,CHILLED WATER LOOP CHW SUPPLY BYPASS OUTLET,Pipe Nodes
 Component Set,28,BRANCH,CHILLED WATER LOOP CHW SUPPLY INLET BRANCH,PUMP:CONSTANTSPEED,CHILLED WATER LOOP CHW SUPPLY PUMP,CHILLED WATER LOOP CHW SUPPLY INLET,CHILLED WATER LOOP CHW PUMP OUTLET,Water Nodes
 Component Set,29,BRANCH,CHILLED WATER LOOP CHW SUPPLY OUTLET BRANCH,PIPE:ADIABATIC,CHILLED WATER LOOP CHW SUPPLY OUTLET PIPE,CHILLED WATER LOOP CHW SUPPLY OUTLET PIPE INLET,CHILLED WATER LOOP CHW SUPPLY OUTLET,Pipe Nodes
 Component Set,30,BRANCH,CHILLED WATER LOOP CHW DEMAND INLET BRANCH,PIPE:ADIABATIC,CHILLED WATER LOOP CHW DEMAND INLET PIPE,CHILLED WATER LOOP CHW DEMAND INLET,CHILLED WATER LOOP CHW DEMAND INLET PIPE OUTLET,Pipe Nodes
 Component Set,31,BRANCH,CHILLED WATER LOOP CHW DEMAND BYPASS BRANCH,PIPE:ADIABATIC,CHILLED WATER LOOP CHW DEMAND SIDE BYPASS PIPE,CHILLED WATER LOOP CHW DEMAND BYPASS INLET,CHILLED WATER LOOP CHW DEMAND BYPASS OUTLET,Pipe Nodes
 Component Set,32,BRANCH,CHILLED WATER LOOP CHW DEMAND OUTLET BRANCH,PIPE:ADIABATIC,CHILLED WATER LOOP CHW DEMAND OUTLET PIPE,CHILLED WATER LOOP CHW DEMAND OUTLET PIPE INLET,CHILLED WATER LOOP CHW DEMAND OUTLET,Pipe Nodes
 Component Set,33,BRANCH,CHILLED WATER LOOP CNDW SUPPLY INLET BRANCH,PUMP:VARIABLESPEED,CHILLED WATER LOOP CNDW SUPPLY PUMP,CHILLED WATER LOOP CNDW SUPPLY INLET,CHILLED WATER LOOP CNDW PUMP OUTLET,Water Nodes
 Component Set,34,BRANCH,CHILLED WATER LOOP CNDW SUPPLY OUTLET BRANCH,PIPE:ADIABATIC,CHILLED WATER LOOP CNDW SUPPLY OUTLET PIPE,CHILLED WATER LOOP CNDW SUPPLY OUTLET PIPE INLET,CHILLED WATER LOOP CNDW SUPPLY OUTLET,Pipe Nodes
 Component Set,35,BRANCH,CHILLED WATER LOOP CNDW SUPPLY BYPASS BRANCH,PIPE:ADIABATIC,CHILLED WATER LOOP CNDW SUPPLY SIDE BYPASS PIPE,CHILLED WATER LOOP CNDW SUPPLY BYPASS INLET,CHILLED WATER LOOP CNDW SUPPLY BYPASS OUTLET,Pipe Nodes
 Component Set,36,BRANCH,CHILLED WATER LOOP CNDW DEMAND INLET BRANCH,PIPE:ADIABATIC,CHILLED WATER LOOP CNDW DEMAND INLET PIPE,CHILLED WATER LOOP CNDW DEMAND INLET,CHILLED WATER LOOP CNDW DEMAND INLET PIPE OUTLET,Pipe Nodes
 Component Set,37,BRANCH,CHILLED WATER LOOP CNDW DEMAND BYPASS BRANCH,PIPE:ADIABATIC,CHILLED WATER LOOP CNDW DEMAND SIDE BYPASS PIPE,CHILLED WATER LOOP CNDW DEMAND BYPASS INLET,CHILLED WATER LOOP CNDW DEMAND BYPASS OUTLET,Pipe Nodes
 Component Set,38,BRANCH,CHILLED WATER LOOP CNDW DEMAND OUTLET BRANCH,PIPE:ADIABATIC,CHILLED WATER LOOP CNDW DEMAND OUTLET PIPE,CHILLED WATER LOOP CNDW DEMAND OUTLET PIPE INLET,CHILLED WATER LOOP CNDW DEMAND OUTLET,Pipe Nodes
 Component Set,39,ZONEHVAC:AIRDISTRIBUTIONUNIT,SPACE1-1 DOAS ATU,AIRTERMINAL:SINGLEDUCT:VAV:NOREHEAT,SPACE1-1 DOAS AIR TERMINAL,SPACE1-1 ZONE EQUIP INLET,SPACE1-1 DOAS SUPPLY INLET,Air Nodes
 Component Set,40,ZONEHVAC:AIRDISTRIBUTIONUNIT,SPACE2-1 DOAS ATU,AIRTERMINAL:SINGLEDUCT:VAV:NOREHEAT,SPACE2-1 DOAS AIR TERMINAL,SPACE2-1 ZONE EQUIP INLET,SPACE2-1 DOAS SUPPLY INLET,Air Nodes
 Component Set,41,ZONEHVAC:AIRDISTRIBUTIONUNIT,SPACE3-1 DOAS ATU,AIRTERMINAL:SINGLEDUCT:VAV:NOREHEAT,SPACE3-1 DOAS AIR TERMINAL,SPACE3-1 ZONE EQUIP INLET,SPACE3-1 DOAS SUPPLY INLET,Air Nodes
 Component Set,42,ZONEHVAC:AIRDISTRIBUTIONUNIT,SPACE4-1 DOAS ATU,AIRTERMINAL:SINGLEDUCT:VAV:NOREHEAT,SPACE4-1 DOAS AIR TERMINAL,SPACE4-1 ZONE EQUIP INLET,SPACE4-1 DOAS SUPPLY INLET,Air Nodes
 Component Set,43,ZONEHVAC:AIRDISTRIBUTIONUNIT,SPACE5-1 DOAS ATU,AIRTERMINAL:SINGLEDUCT:VAV:NOREHEAT,SPACE5-1 DOAS AIR TERMINAL,SPACE5-1 ZONE EQUIP INLET,SPACE5-1 DOAS SUPPLY INLET,Air Nodes
 Component Set,44,ZONEHVAC:FOURPIPEFANCOIL,SPACE1-1 FAN COIL,OUTDOORAIR:MIXER,SPACE1-1 OA MIXING BOX,SPACE1-1 OUTSIDE AIR INLET,SPACE1-1 MIXED AIR OUTLET,Air Nodes
 Component Set,45,ZONEHVAC:FOURPIPEFANCOIL,SPACE2-1 FAN COIL,OUTDOORAIR:MIXER,SPACE2-1 OA MIXING BOX,SPACE2-1 OUTSIDE AIR INLET,SPACE2-1 MIXED AIR OUTLET,Air Nodes
 Component Set,46,ZONEHVAC:FOURPIPEFANCOIL,SPACE3-1 FAN COIL,OUTDOORAIR:MIXER,SPACE3-1 OA MIXING BOX,SPACE3-1 OUTSIDE AIR INLET,SPACE3-1 MIXED AIR OUTLET,Air Nodes
 Component Set,47,ZONEHVAC:FOURPIPEFANCOIL,SPACE4-1 FAN COIL,OUTDOORAIR:MIXER,SPACE4-1 OA MIXING BOX,SPACE4-1 OUTSIDE AIR INLET,SPACE4-1 MIXED AIR OUTLET,Air Nodes
 Component Set,48,ZONEHVAC:FOURPIPEFANCOIL,SPACE5-1 FAN COIL,OUTDOORAIR:MIXER,SPACE5-1 OA MIXING BOX,SPACE5-1 OUTSIDE AIR INLET,SPACE5-1 MIXED AIR OUTLET,Air Nodes
 Component Set,49,AIRLOOPHVAC:OUTDOORAIRSYSTEM,DOAS OA SYSTEM,OUTDOORAIR:MIXER,DOAS OA MIXING BOX,DOAS HEAT RECOVERY SUPPLY OUTLET,DOAS MIXED AIR OUTLET,Air Nodes
 Component Set,50,ZONEHVAC:FOURPIPEFANCOIL,SPACE1-1 FAN COIL,COIL:HEATING:WATER,SPACE1-1 HEATING COIL,SPACE1-1 COOLING COIL OUTLET,SPACE1-1 SUPPLY INLET,Air Nodes
 Component Set,51,ZONEHVAC:FOURPIPEFANCOIL,SPACE2-1 FAN COIL,COIL:HEATING:WATER,SPACE2-1 HEATING COIL,SPACE2-1 COOLING COIL OUTLET,SPACE2-1 SUPPLY INLET,Air Nodes
 Component Set,52,ZONEHVAC:FOURPIPEFANCOIL,SPACE3-1 FAN COIL,COIL:HEATING:WATER,SPACE3-1 HEATING COIL,SPACE3-1 COOLING COIL OUTLET,SPACE3-1 SUPPLY INLET,Air Nodes
 Component Set,53,ZONEHVAC:FOURPIPEFANCOIL,SPACE4-1 FAN COIL,COIL:HEATING:WATER,SPACE4-1 HEATING COIL,SPACE4-1 COOLING COIL OUTLET,SPACE4-1 SUPPLY INLET,Air Nodes
 Component Set,54,ZONEHVAC:FOURPIPEFANCOIL,SPACE5-1 FAN COIL,COIL:HEATING:WATER,SPACE5-1 HEATING COIL,SPACE5-1 COOLING COIL OUTLET,SPACE5-1 SUPPLY INLET,Air Nodes
 Component Set,55,ZONEHVAC:FOURPIPEFANCOIL,SPACE1-1 FAN COIL,COIL:COOLING:WATER,SPACE1-1 COOLING COIL,SPACE1-1 SUPPLY FAN OUTLET,SPACE1-1 COOLING COIL OUTLET,Air Nodes
 Component Set,56,ZONEHVAC:FOURPIPEFANCOIL,SPACE2-1 FAN COIL,COIL:COOLING:WATER,SPACE2-1 COOLING COIL,SPACE2-1 SUPPLY FAN OUTLET,SPACE2-1 COOLING COIL OUTLET,Air Nodes
 Component Set,57,ZONEHVAC:FOURPIPEFANCOIL,SPACE3-1 FAN COIL,COIL:COOLING:WATER,SPACE3-1 COOLING COIL,SPACE3-1 SUPPLY FAN OUTLET,SPACE3-1 COOLING COIL OUTLET,Air Nodes
 Component Set,58,ZONEHVAC:FOURPIPEFANCOIL,SPACE4-1 FAN COIL,COIL:COOLING:WATER,SPACE4-1 COOLING COIL,SPACE4-1 SUPPLY FAN OUTLET,SPACE4-1 COOLING COIL OUTLET,Air Nodes
 Component Set,59,ZONEHVAC:FOURPIPEFANCOIL,SPACE5-1 FAN COIL,COIL:COOLING:WATER,SPACE5-1 COOLING COIL,SPACE5-1 SUPPLY FAN OUTLET,SPACE5-1 COOLING COIL OUTLET,Air Nodes
 Component Set,60,ZONEHVAC:FOURPIPEFANCOIL,SPACE1-1 FAN COIL,FAN:ONOFF,SPACE1-1 SUPPLY FAN,SPACE1-1 MIXED AIR OUTLET,SPACE1-1 SUPPLY FAN OUTLET,Air Nodes
 Component Set,61,ZONEHVAC:FOURPIPEFANCOIL,SPACE2-1 FAN COIL,FAN:ONOFF,SPACE2-1 SUPPLY FAN,SPACE2-1 MIXED AIR OUTLET,SPACE2-1 SUPPLY FAN OUTLET,Air Nodes
 Component Set,62,ZONEHVAC:FOURPIPEFANCOIL,SPACE3-1 FAN COIL,FAN:ONOFF,SPACE3-1 SUPPLY FAN,SPACE3-1 MIXED AIR OUTLET,SPACE3-1 SUPPLY FAN OUTLET,Air Nodes
 Component Set,63,ZONEHVAC:FOURPIPEFANCOIL,SPACE4-1 FAN COIL,FAN:ONOFF,SPACE4-1 SUPPLY FAN,SPACE4-1 MIXED AIR OUTLET,SPACE4-1 SUPPLY FAN OUTLET,Air Nodes
 Component Set,64,ZONEHVAC:FOURPIPEFANCOIL,SPACE5-1 FAN COIL,FAN:ONOFF,SPACE5-1 SUPPLY FAN,SPACE5-1 MIXED AIR OUTLET,SPACE5-1 SUPPLY FAN OUTLET,Air Nodes
 Component Set,65,AIRLOOPHVAC:OUTDOORAIRSYSTEM,DOAS OA SYSTEM,HEATEXCHANGER:AIRTOAIR:SENSIBLEANDLATENT,DOAS HEAT RECOVERY,DOAS OUTDOOR AIR INLET,DOAS HEAT RECOVERY SUPPLY OUTLET,Process Air Nodes
! ===============================================================
! <# Plant Loops>,<Number of Plant Loops>
 #Plant Loops,2
! <Plant Loop>,<Plant Loop Name>,<Loop Type>,<Inlet Node Name>,<Outlet Node Name>,<Branch List>,<Connector List>
! <Plant Loop Connector>,<Connector Type>,<Connector Name>,<Loop Name>,<Loop Type>,<Number of Inlets/Outlets>
! <Plant Loop Connector Branches>,<Connector Node Count>,<Connector Type>,<Connector Name>,<Inlet Branch>,<Outlet Branch>,<Loop Name>,<Loop Type>
! <Plant Loop Connector Nodes>,<Connector Node Count>,<Connector Type>,<Connector Name>,<Inlet Node>,<Outlet Node>,<Loop Name>,<Loop Type>
! <Plant Loop Supply Connection>,<Plant Loop Name>,<Supply Side Outlet Node Name>,<Demand Side Inlet Node Name>
! <Plant Loop Return Connection>,<Plant Loop Name>,<Demand Side Outlet Node Name>,<Supply Side Inlet Node Name>
 Plant Loop,HOT WATER LOOP HOT WATER LOOP,Demand,HOT WATER LOOP HW DEMAND INLET,HOT WATER LOOP HW DEMAND OUTLET,HOT WATER LOOP HW DEMAND SIDE BRANCHES,HOT WATER LOOP HW DEMAND SIDE CONNECTORS
   Plant Loop Connector,Splitter,HOT WATER LOOP HW DEMAND SPLITTER,HOT WATER LOOP HOT WATER LOOP,Demand,7
     Plant Loop Connector Branches,1,Splitter,HOT WATER LOOP HW DEMAND SPLITTER,HOT WATER LOOP HW DEMAND INLET BRANCH,HOT WATER LOOP HW DEMAND BYPASS BRANCH,HOT WATER LOOP HOT WATER LOOP,Demand
     Plant Loop Connector Nodes,   1,Splitter,HOT WATER LOOP HW DEMAND SPLITTER,HOT WATER LOOP HW DEMAND INLET PIPE OUTLET,HOT WATER LOOP HW DEMAND BYPASS INLET,HOT WATER LOOP HOT WATER LOOP,Demand
     Plant Loop Connector Branches,2,Splitter,HOT WATER LOOP HW DEMAND SPLITTER,HOT WATER LOOP HW DEMAND INLET BRANCH,SPACE1-1 HEATING COIL HW BRANCH,HOT WATER LOOP HOT WATER LOOP,Demand
     Plant Loop Connector Nodes,   2,Splitter,HOT WATER LOOP HW DEMAND SPLITTER,HOT WATER LOOP HW DEMAND INLET PIPE OUTLET,SPACE1-1 HEATING COIL HW INLET,HOT WATER LOOP HOT WATER LOOP,Demand
     Plant Loop Connector Branches,3,Splitter,HOT WATER LOOP HW DEMAND SPLITTER,HOT WATER LOOP HW DEMAND INLET BRANCH,SPACE2-1 HEATING COIL HW BRANCH,HOT WATER LOOP HOT WATER LOOP,Demand
     Plant Loop Connector Nodes,   3,Splitter,HOT WATER LOOP HW DEMAND SPLITTER,HOT WATER LOOP HW DEMAND INLET PIPE OUTLET,SPACE2-1 HEATING COIL HW INLET,HOT WATER LOOP HOT WATER LOOP,Demand
     Plant Loop Connector Branches,4,Splitter,HOT WATER LOOP HW DEMAND SPLITTER,HOT WATER LOOP HW DEMAND INLET BRANCH,SPACE3-1 HEATING COIL HW BRANCH,HOT WATER LOOP HOT WATER LOOP,Demand
     Plant Loop Connector Nodes,   4,Splitter,HOT WATER LOOP HW DEMAND SPLITTER,HOT WATER LOOP HW DEMAND INLET PIPE OUTLET,SPACE3-1 HEATING COIL HW INLET,HOT WATER LOOP HOT WATER LOOP,Demand
     Plant Loop Connector Branches,5,Splitter,HOT WATER LOOP HW DEMAND SPLITTER,HOT WATER LOOP HW DEMAND INLET BRANCH,SPACE4-1 HEATING COIL HW BRANCH,HOT WATER LOOP HOT WATER LOOP,Demand
     Plant Loop Connector Nodes,   5,Splitter,HOT WATER LOOP HW DEMAND SPLITTER,HOT WATER LOOP HW DEMAND INLET PIPE OUTLET,SPACE4-1 HEATING COIL HW INLET,HOT WATER LOOP HOT WATER LOOP,Demand
     Plant Loop Connector Branches,6,Splitter,HOT WATER LOOP HW DEMAND SPLITTER,HOT WATER LOOP HW DEMAND INLET BRANCH,SPACE5-1 HEATING COIL HW BRANCH,HOT WATER LOOP HOT WATER LOOP,Demand
     Plant Loop Connector Nodes,   6,Splitter,HOT WATER LOOP HW DEMAND SPLITTER,HOT WATER LOOP HW DEMAND INLET PIPE OUTLET,SPACE5-1 HEATING COIL HW INLET,HOT WATER LOOP HOT WATER LOOP,Demand
     Plant Loop Connector Branches,7,Splitter,HOT WATER LOOP HW DEMAND SPLITTER,HOT WATER LOOP HW DEMAND INLET BRANCH,DOAS HEATING COIL HW BRANCH,HOT WATER LOOP HOT WATER LOOP,Demand
     Plant Loop Connector Nodes,   7,Splitter,HOT WATER LOOP HW DEMAND SPLITTER,HOT WATER LOOP HW DEMAND INLET PIPE OUTLET,DOAS HEATING COIL HW INLET,HOT WATER LOOP HOT WATER LOOP,Demand
   Plant Loop Connector,Mixer,HOT WATER LOOP HW DEMAND MIXER,HOT WATER LOOP HOT WATER LOOP,Demand,7
     Plant Loop Connector Branches,1,Mixer,HOT WATER LOOP HW DEMAND MIXER,HOT WATER LOOP HW DEMAND BYPASS BRANCH,HOT WATER LOOP HW DEMAND OUTLET BRANCH,HOT WATER LOOP HOT WATER LOOP,Demand
     Plant Loop Connector Nodes,   1,Mixer,HOT WATER LOOP HW DEMAND MIXER,HOT WATER LOOP HW DEMAND BYPASS OUTLET,HOT WATER LOOP HW DEMAND OUTLET PIPE INLET,HOT WATER LOOP HOT WATER LOOP,Demand
     Plant Loop Connector Branches,2,Mixer,HOT WATER LOOP HW DEMAND MIXER,SPACE1-1 HEATING COIL HW BRANCH,HOT WATER LOOP HW DEMAND OUTLET BRANCH,HOT WATER LOOP HOT WATER LOOP,Demand
     Plant Loop Connector Nodes,   2,Mixer,HOT WATER LOOP HW DEMAND MIXER,SPACE1-1 HEATING COIL HW OUTLET,HOT WATER LOOP HW DEMAND OUTLET PIPE INLET,HOT WATER LOOP HOT WATER LOOP,Demand
     Plant Loop Connector Branches,3,Mixer,HOT WATER LOOP HW DEMAND MIXER,SPACE2-1 HEATING COIL HW BRANCH,HOT WATER LOOP HW DEMAND OUTLET BRANCH,HOT WATER LOOP HOT WATER LOOP,Demand
     Plant Loop Connector Nodes,   3,Mixer,HOT WATER LOOP HW DEMAND MIXER,SPACE2-1 HEATING COIL HW OUTLET,HOT WATER LOOP HW DEMAND OUTLET PIPE INLET,HOT WATER LOOP HOT WATER LOOP,Demand
     Plant Loop Connector Branches,4,Mixer,HOT WATER LOOP HW DEMAND MIXER,SPACE3-1 HEATING COIL HW BRANCH,HOT WATER LOOP HW DEMAND OUTLET BRANCH,HOT WATER LOOP HOT WATER LOOP,Demand
     Plant Loop Connector Nodes,   4,Mixer,HOT WATER LOOP HW DEMAND MIXER,SPACE3-1 HEATING COIL HW OUTLET,HOT WATER LOOP HW DEMAND OUTLET PIPE INLET,HOT WATER LOOP HOT WATER LOOP,Demand
     Plant Loop Connector Branches,5,Mixer,HOT WATER LOOP HW DEMAND MIXER,SPACE4-1 HEATING COIL HW BRANCH,HOT WATER LOOP HW DEMAND OUTLET BRANCH,HOT WATER LOOP HOT WATER LOOP,Demand
     Plant Loop Connector Nodes,   5,Mixer,HOT WATER LOOP HW DEMAND MIXER,SPACE4-1 HEATING COIL HW OUTLET,HOT WATER LOOP HW DEMAND OUTLET PIPE INLET,HOT WATER LOOP HOT WATER LOOP,Demand
     Plant Loop Connector Branches,6,Mixer,HOT WATER LOOP HW DEMAND MIXER,SPACE5-1 HEATING COIL HW BRANCH,HOT WATER LOOP HW DEMAND OUTLET BRANCH,HOT WATER LOOP HOT WATER LOOP,Demand
     Plant Loop Connector Nodes,   6,Mixer,HOT WATER LOOP HW DEMAND MIXER,SPACE5-1 HEATING COIL HW OUTLET,HOT WATER LOOP HW DEMAND OUTLET PIPE INLET,HOT WATER LOOP HOT WATER LOOP,Demand
     Plant Loop Connector Branches,7,Mixer,HOT WATER LOOP HW DEMAND MIXER,DOAS HEATING COIL HW BRANCH,HOT WATER LOOP HW DEMAND OUTLET BRANCH,HOT WATER LOOP HOT WATER LOOP,Demand
     Plant Loop Connector Nodes,   7,Mixer,HOT WATER LOOP HW DEMAND MIXER,DOAS HEATING COIL HW OUTLET,HOT WATER LOOP HW DEMAND OUTLET PIPE INLET,HOT WATER LOOP HOT WATER LOOP,Demand
 Plant Loop,HOT WATER LOOP HOT WATER LOOP,Supply,HOT WATER LOOP HW SUPPLY INLET,HOT WATER LOOP HW SUPPLY OUTLET,HOT WATER LOOP HW SUPPLY SIDE BRANCHES,HOT WATER LOOP HW SUPPLY SIDE CONNECTORS
   Plant Loop Connector,Splitter,HOT WATER LOOP HW SUPPLY SPLITTER,HOT WATER LOOP HOT WATER LOOP,Supply,2
     Plant Loop Connector Branches,1,Splitter,HOT WATER LOOP HW SUPPLY SPLITTER,HOT WATER LOOP HW SUPPLY INLET BRANCH,MAIN BOILER HW BRANCH,HOT WATER LOOP HOT WATER LOOP,Supply
     Plant Loop Connector Nodes,   1,Splitter,HOT WATER LOOP HW SUPPLY SPLITTER,HOT WATER LOOP HW PUMP OUTLET,MAIN BOILER HW INLET,HOT WATER LOOP HOT WATER LOOP,Supply
     Plant Loop Connector Branches,2,Splitter,HOT WATER LOOP HW SUPPLY SPLITTER,HOT WATER LOOP HW SUPPLY INLET BRANCH,HOT WATER LOOP HW SUPPLY BYPASS BRANCH,HOT WATER LOOP HOT WATER LOOP,Supply
     Plant Loop Connector Nodes,   2,Splitter,HOT WATER LOOP HW SUPPLY SPLITTER,HOT WATER LOOP HW PUMP OUTLET,HOT WATER LOOP HW SUPPLY BYPASS INLET,HOT WATER LOOP HOT WATER LOOP,Supply
   Plant Loop Connector,Mixer,HOT WATER LOOP HW SUPPLY MIXER,HOT WATER LOOP HOT WATER LOOP,Supply,2
     Plant Loop Connector Branches,1,Mixer,HOT WATER LOOP HW SUPPLY MIXER,MAIN BOILER HW BRANCH,HOT WATER LOOP HW SUPPLY OUTLET BRANCH,HOT WATER LOOP HOT WATER LOOP,Supply
     Plant Loop Connector Nodes,   1,Mixer,HOT WATER LOOP HW SUPPLY MIXER,MAIN BOILER HW OUTLET,HOT WATER LOOP HW SUPPLY OUTLET PIPE INLET,HOT WATER LOOP HOT WATER LOOP,Supply
     Plant Loop Connector Branches,2,Mixer,HOT WATER LOOP HW SUPPLY MIXER,HOT WATER LOOP HW SUPPLY BYPASS BRANCH,HOT WATER LOOP HW SUPPLY OUTLET BRANCH,HOT WATER LOOP HOT WATER LOOP,Supply
     Plant Loop Connector Nodes,   2,Mixer,HOT WATER LOOP HW SUPPLY MIXER,HOT WATER LOOP HW SUPPLY BYPASS OUTLET,HOT WATER LOOP HW SUPPLY OUTLET PIPE INLET,HOT WATER LOOP HOT WATER LOOP,Supply
 Plant Loop Supply Connection,HOT WATER LOOP HOT WATER LOOP,HOT WATER LOOP HW SUPPLY OUTLET,HOT WATER LOOP HW DEMAND INLET
 Plant Loop Return Connection,HOT WATER LOOP HOT WATER LOOP,HOT WATER LOOP HW DEMAND OUTLET,HOT WATER LOOP HW SUPPLY INLET
 Plant Loop,CHILLED WATER LOOP CHILLED WATER LOOP,Demand,CHILLED WATER LOOP CHW DEMAND INLET,CHILLED WATER LOOP CHW DEMAND OUTLET,CHILLED WATER LOOP CHW DEMAND SIDE BRANCHES,CHILLED WATER LOOP CHW DEMAND SIDE CONNECTORS
   Plant Loop Connector,Splitter,CHILLED WATER LOOP CHW DEMAND SPLITTER,CHILLED WATER LOOP CHILLED WATER LOOP,Demand,7
     Plant Loop Connector Branches,1,Splitter,CHILLED WATER LOOP CHW DEMAND SPLITTER,CHILLED WATER LOOP CHW DEMAND INLET BRANCH,CHILLED WATER LOOP CHW DEMAND BYPASS BRANCH,CHILLED WATER LOOP CHILLED WATER LOOP,Demand
     Plant Loop Connector Nodes,   1,Splitter,CHILLED WATER LOOP CHW DEMAND SPLITTER,CHILLED WATER LOOP CHW DEMAND INLET PIPE OUTLET,CHILLED WATER LOOP CHW DEMAND BYPASS INLET,CHILLED WATER LOOP CHILLED WATER LOOP,Demand
     Plant Loop Connector Branches,2,Splitter,CHILLED WATER LOOP CHW DEMAND SPLITTER,CHILLED WATER LOOP CHW DEMAND INLET BRANCH,SPACE1-1 COOLING COIL CHW BRANCH,CHILLED WATER LOOP CHILLED WATER LOOP,Demand
     Plant Loop Connector Nodes,   2,Splitter,CHILLED WATER LOOP CHW DEMAND SPLITTER,CHILLED WATER LOOP CHW DEMAND INLET PIPE OUTLET,SPACE1-1 COOLING COIL CHW INLET,CHILLED WATER LOOP CHILLED WATER LOOP,Demand
     Plant Loop Connector Branches,3,Splitter,CHILLED WATER LOOP CHW DEMAND SPLITTER,CHILLED WATER LOOP CHW DEMAND INLET BRANCH,SPACE2-1 COOLING COIL CHW BRANCH,CHILLED WATER LOOP CHILLED WATER LOOP,Demand
     Plant Loop Connector Nodes,   3,Splitter,CHILLED WATER LOOP CHW DEMAND SPLITTER,CHILLED WATER LOOP CHW DEMAND INLET PIPE OUTLET,SPACE2-1 COOLING COIL CHW INLET,CHILLED WATER LOOP CHILLED WATER LOOP,Demand
     Plant Loop Connector Branches,4,Splitter,CHILLED WATER LOOP CHW DEMAND SPLITTER,CHILLED WATER LOOP CHW DEMAND INLET BRANCH,SPACE3-1 COOLING COIL CHW BRANCH,CHILLED WATER LOOP CHILLED WATER LOOP,Demand
     Plant Loop Connector Nodes,   4,Splitter,CHILLED WATER LOOP CHW DEMAND SPLITTER,CHILLED WATER LOOP CHW DEMAND INLET PIPE OUTLET,SPACE3-1 COOLING COIL CHW INLET,CHILLED WATER LOOP CHILLED WATER LOOP,Demand
     Plant Loop Connector Branches,5,Splitter,CHILLED WATER LOOP CHW DEMAND SPLITTER,CHILLED WATER LOOP CHW DEMAND INLET BRANCH,SPACE4-1 COOLING COIL CHW BRANCH,CHILLED WATER LOOP CHILLED WATER LOOP,Demand
     Plant Loop Connector Nodes,   5,Splitter,CHILLED WATER LOOP CHW DEMAND SPLITTER,CHILLED WATER LOOP CHW DEMAND INLET PIPE OUTLET,SPACE4-1 COOLING COIL CHW INLET,CHILLED WATER LOOP CHILLED WATER LOOP,Demand
     Plant Loop Connector Branches,6,Splitter,CHILLED WATER LOOP CHW DEMAND SPLITTER,CHILLED WATER LOOP CHW DEMAND INLET BRANCH,SPACE5-1 COOLING COIL CHW BRANCH,CHILLED WATER LOOP CHILLED WATER LOOP,Demand
     Plant Loop Connector Nodes,   6,Splitter,CHILLED WATER LOOP CHW DEMAND SPLITTER,CHILLED WATER LOOP CHW DEMAND INLET PIPE OUTLET,SPACE5-1 COOLING COIL CHW INLET,CHILLED WATER LOOP CHILLED WATER LOOP,Demand
     Plant Loop Connector Branches,7,Splitter,CHILLED WATER LOOP CHW DEMAND SPLITTER,CHILLED WATER LOOP CHW DEMAND INLET BRANCH,DOAS COOLING COIL CHW BRANCH,CHILLED WATER LOOP CHILLED WATER LOOP,Demand
     Plant Loop Connector Nodes,   7,Splitter,CHILLED WATER LOOP CHW DEMAND SPLITTER,CHILLED WATER LOOP CHW DEMAND INLET PIPE OUTLET,DOAS COOLING COIL CHW INLET,CHILLED WATER LOOP CHILLED WATER LOOP,Demand
   Plant Loop Connector,Mixer,CHILLED WATER LOOP CHW DEMAND MIXER,CHILLED WATER LOOP CHILLED WATER LOOP,Demand,7
     Plant Loop Connector Branches,1,Mixer,CHILLED WATER LOOP CHW DEMAND MIXER,CHILLED WATER LOOP CHW DEMAND BYPASS BRANCH,CHILLED WATER LOOP CHW DEMAND OUTLET BRANCH,CHILLED WATER LOOP CHILLED WATER LOOP,Demand
     Plant Loop Connector Nodes,   1,Mixer,CHILLED WATER LOOP CHW DEMAND MIXER,CHILLED WATER LOOP CHW DEMAND BYPASS OUTLET,CHILLED WATER LOOP CHW DEMAND OUTLET PIPE INLET,CHILLED WATER LOOP CHILLED WATER LOOP,Demand
     Plant Loop Connector Branches,2,Mixer,CHILLED WATER LOOP CHW DEMAND MIXER,SPACE1-1 COOLING COIL CHW BRANCH,CHILLED WATER LOOP CHW DEMAND OUTLET BRANCH,CHILLED WATER LOOP CHILLED WATER LOOP,Demand
     Plant Loop Connector Nodes,   2,Mixer,CHILLED WATER LOOP CHW DEMAND MIXER,SPACE1-1 COOLING COIL CHW OUTLET,CHILLED WATER LOOP CHW DEMAND OUTLET PIPE INLET,CHILLED WATER LOOP CHILLED WATER LOOP,Demand
     Plant Loop Connector Branches,3,Mixer,CHILLED WATER LOOP CHW DEMAND MIXER,SPACE2-1 COOLING COIL CHW BRANCH,CHILLED WATER LOOP CHW DEMAND OUTLET BRANCH,CHILLED WATER LOOP CHILLED WATER LOOP,Demand
     Plant Loop Connector Nodes,   3,Mixer,CHILLED WATER LOOP CHW DEMAND MIXER,SPACE2-1 COOLING COIL CHW OUTLET,CHILLED WATER LOOP CHW DEMAND OUTLET PIPE INLET,CHILLED WATER LOOP CHILLED WATER LOOP,Demand
     Plant Loop Connector Branches,4,Mixer,CHILLED WATER LOOP CHW DEMAND MIXER,SPACE3-1 COOLING COIL CHW BRANCH,CHILLED WATER LOOP CHW DEMAND OUTLET BRANCH,CHILLED WATER LOOP CHILLED WATER LOOP,Demand
     Plant Loop Connector Nodes,   4,Mixer,CHILLED WATER LOOP CHW DEMAND MIXER,SPACE3-1 COOLING COIL CHW OUTLET,CHILLED WATER LOOP CHW DEMAND OUTLET PIPE INLET,CHILLED WATER LOOP CHILLED WATER LOOP,Demand
     Plant Loop Connector Branches,5,Mixer,CHILLED WATER LOOP CHW DEMAND MIXER,SPACE4-1 COOLING COIL CHW BRANCH,CHILLED WATER LOOP CHW DEMAND OUTLET BRANCH,CHILLED WATER LOOP CHILLED WATER LOOP,Demand
     Plant Loop Connector Nodes,   5,Mixer,CHILLED WATER LOOP CHW DEMAND MIXER,SPACE4-1 COOLING COIL CHW OUTLET,CHILLED WATER LOOP CHW DEMAND OUTLET PIPE INLET,CHILLED WATER LOOP CHILLED WATER LOOP,Demand
     Plant Loop Connector Branches,6,Mixer,CHILLED WATER LOOP CHW DEMAND MIXER,SPACE5-1 COOLING COIL CHW BRANCH,CHILLED WATER LOOP CHW DEMAND OUTLET BRANCH,CHILLED WATER LOOP CHILLED WATER LOOP,Demand
     Plant Loop Connector Nodes,   6,Mixer,CHILLED WATER LOOP CHW DEMAND MIXER,SPACE5-1 COOLING COIL CHW OUTLET,CHILLED WATER LOOP CHW DEMAND OUTLET PIPE INLET,CHILLED WATER LOOP CHILLED WATER LOOP,Demand
     Plant Loop Connector Branches,7,Mixer,CHILLED WATER LOOP CHW DEMAND MIXER,DOAS COOLING COIL CHW BRANCH,CHILLED WATER LOOP CHW DEMAND OUTLET BRANCH,CHILLED WATER LOOP CHILLED WATER LOOP,Demand
     Plant Loop Connector Nodes,   7,Mixer,CHILLED WATER LOOP CHW DEMAND MIXER,DOAS COOLING COIL CHW OUTLET,CHILLED WATER LOOP CHW DEMAND OUTLET PIPE INLET,CHILLED WATER LOOP CHILLED WATER LOOP,Demand
 Plant Loop,CHILLED WATER LOOP CHILLED WATER LOOP,Supply,CHILLED WATER LOOP CHW SUPPLY INLET,CHILLED WATER LOOP CHW SUPPLY OUTLET,CHILLED WATER LOOP CHW SUPPLY SIDE BRANCHES,CHILLED WATER LOOP CHW SUPPLY SIDE CONNECTORS
   Plant Loop Connector,Splitter,CHILLED WATER LOOP CHW SUPPLY SPLITTER,CHILLED WATER LOOP CHILLED WATER LOOP,Supply,2
     Plant Loop Connector Branches,1,Splitter,CHILLED WATER LOOP CHW SUPPLY SPLITTER,CHILLED WATER LOOP CHW SUPPLY INLET BRANCH,CHILLED WATER LOOP CHW SUPPLY BYPASS BRANCH,CHILLED WATER LOOP CHILLED WATER LOOP,Supply
     Plant Loop Connector Nodes,   1,Splitter,CHILLED WATER LOOP CHW SUPPLY SPLITTER,CHILLED WATER LOOP CHW PUMP OUTLET,CHILLED WATER LOOP CHW SUPPLY BYPASS INLET,CHILLED WATER LOOP CHILLED WATER LOOP,Supply
     Plant Loop Connector Branches,2,Splitter,CHILLED WATER LOOP CHW SUPPLY SPLITTER,CHILLED WATER LOOP CHW SUPPLY INLET BRANCH,MAIN CHILLER CHW BRANCH,CHILLED WATER LOOP CHILLED WATER LOOP,Supply
     Plant Loop Connector Nodes,   2,Splitter,CHILLED WATER LOOP CHW SUPPLY SPLITTER,CHILLED WATER LOOP CHW PUMP OUTLET,MAIN CHILLER CHW INLET,CHILLED WATER LOOP CHILLED WATER LOOP,Supply
   Plant Loop Connector,Mixer,CHILLED WATER LOOP CHW SUPPLY MIXER,CHILLED WATER LOOP CHILLED WATER LOOP,Supply,2
     Plant Loop Connector Branches,1,Mixer,CHILLED WATER LOOP CHW SUPPLY MIXER,CHILLED WATER LOOP CHW SUPPLY BYPASS BRANCH,CHILLED WATER LOOP CHW SUPPLY OUTLET BRANCH,CHILLED WATER LOOP CHILLED WATER LOOP,Supply
     Plant Loop Connector Nodes,   1,Mixer,CHILLED WATER LOOP CHW SUPPLY MIXER,CHILLED WATER LOOP CHW SUPPLY BYPASS OUTLET,CHILLED WATER LOOP CHW SUPPLY OUTLET PIPE INLET,CHILLED WATER LOOP CHILLED WATER LOOP,Supply
     Plant Loop Connector Branches,2,Mixer,CHILLED WATER LOOP CHW SUPPLY MIXER,MAIN CHILLER CHW BRANCH,CHILLED WATER LOOP CHW SUPPLY OUTLET BRANCH,CHILLED WATER LOOP CHILLED WATER LOOP,Supply
     Plant Loop Connector Nodes,   2,Mixer,CHILLED WATER LOOP CHW SUPPLY MIXER,MAIN CHILLER CHW OUTLET,CHILLED WATER LOOP CHW SUPPLY OUTLET PIPE INLET,CHILLED WATER LOOP CHILLED WATER LOOP,Supply
 Plant Loop Supply Connection,CHILLED WATER LOOP CHILLED WATER LOOP,CHILLED WATER LOOP CHW SUPPLY OUTLET,CHILLED WATER LOOP CHW DEMAND INLET
 Plant Loop Return Connection,CHILLED WATER LOOP CHILLED WATER LOOP,CHILLED WATER LOOP CHW DEMAND OUTLET,CHILLED WATER LOOP CHW SUPPLY INLET
! ===============================================================
! <# Condenser Loops>,<Number of Condenser Loops>
 #Condenser Loops,1
! <Condenser Loop>,<Condenser Loop Name>,<Loop Type>,<Inlet Node Name>,<Outlet Node Name>,<Branch List>,<Connector List>
! <Condenser Loop Connector>,<Connector Type>,<Connector Name>,<Loop Name>,<Loop Type>,<Number of Inlets/Outlets>
! <Condenser Loop Connector Branches>,<Connector Node Count>,<Connector Type>,<Connector Name>,<Inlet Branch>,<Outlet Branch>,<Loop Name>,<Loop Type>
! <Condenser Loop Connector Nodes>,<Connector Node Count>,<Connector Type>,<Connector Name>,<Inlet Node>,<Outlet Node>,<Loop Name>,<Loop Type>
! <Condenser Loop Supply Connection>,<Condenser Loop Name>,<Supply Side Outlet Node Name>,<Demand Side Inlet Node Name>
! <Condenser Loop Return Connection>,<Condenser Loop Name>,<Demand Side Outlet Node Name>,<Supply Side Inlet Node Name>
 Plant Loop,CHILLED WATER LOOP CONDENSER WATER LOOP,Demand,CHILLED WATER LOOP CNDW DEMAND INLET,CHILLED WATER LOOP CNDW DEMAND OUTLET,CHILLED WATER LOOP CNDW DEMAND SIDE BRANCHES,CHILLED WATER LOOP CNDW DEMAND SIDE CONNECTORS
   Plant Loop Connector,Splitter,CHILLED WATER LOOP CNDW DEMAND SPLITTER,CHILLED WATER LOOP CONDENSER WATER LOOP,Demand,2
     Plant Loop Connector Branches,1,Splitter,CHILLED WATER LOOP CNDW DEMAND SPLITTER,CHILLED WATER LOOP CNDW DEMAND INLET BRANCH,CHILLED WATER LOOP CNDW DEMAND BYPASS BRANCH,CHILLED WATER LOOP CONDENSER WATER LOOP,Demand
     Plant Loop Connector Nodes,   1,Splitter,CHILLED WATER LOOP CNDW DEMAND SPLITTER,CHILLED WATER LOOP CNDW DEMAND INLET PIPE OUTLET,CHILLED WATER LOOP CNDW DEMAND BYPASS INLET,CHILLED WATER LOOP CONDENSER WATER LOOP,Demand
     Plant Loop Connector Branches,2,Splitter,CHILLED WATER LOOP CNDW DEMAND SPLITTER,CHILLED WATER LOOP CNDW DEMAND INLET BRANCH,MAIN CHILLER CNDW BRANCH,CHILLED WATER LOOP CONDENSER WATER LOOP,Demand
     Plant Loop Connector Nodes,   2,Splitter,CHILLED WATER LOOP CNDW DEMAND SPLITTER,CHILLED WATER LOOP CNDW DEMAND INLET PIPE OUTLET,MAIN CHILLER CND INLET,CHILLED WATER LOOP CONDENSER WATER LOOP,Demand
   Plant Loop Connector,Mixer,CHILLED WATER LOOP CNDW DEMAND MIXER,CHILLED WATER LOOP CONDENSER WATER LOOP,Demand,2
     Plant Loop Connector Branches,1,Mixer,CHILLED WATER LOOP CNDW DEMAND MIXER,CHILLED WATER LOOP CNDW DEMAND BYPASS BRANCH,CHILLED WATER LOOP CNDW DEMAND OUTLET BRANCH,CHILLED WATER LOOP CONDENSER WATER LOOP,Demand
     Plant Loop Connector Nodes,   1,Mixer,CHILLED WATER LOOP CNDW DEMAND MIXER,CHILLED WATER LOOP CNDW DEMAND BYPASS OUTLET,CHILLED WATER LOOP CNDW DEMAND OUTLET PIPE INLET,CHILLED WATER LOOP CONDENSER WATER LOOP,Demand
     Plant Loop Connector Branches,2,Mixer,CHILLED WATER LOOP CNDW DEMAND MIXER,MAIN CHILLER CNDW BRANCH,CHILLED WATER LOOP CNDW DEMAND OUTLET BRANCH,CHILLED WATER LOOP CONDENSER WATER LOOP,Demand
     Plant Loop Connector Nodes,   2,Mixer,CHILLED WATER LOOP CNDW DEMAND MIXER,MAIN CHILLER CND OUTLET,CHILLED WATER LOOP CNDW DEMAND OUTLET PIPE INLET,CHILLED WATER LOOP CONDENSER WATER LOOP,Demand
 Plant Loop,CHILLED WATER LOOP CONDENSER WATER LOOP,Supply,CHILLED WATER LOOP CNDW SUPPLY INLET,CHILLED WATER LOOP CNDW SUPPLY OUTLET,CHILLED WATER LOOP CNDW SUPPLY SIDE BRANCHES,CHILLED WATER LOOP CNDW SUPPLY SIDE CONNECTORS
   Plant Loop Connector,Splitter,CHILLED WATER LOOP CNDW SUPPLY SPLITTER,CHILLED WATER LOOP CONDENSER WATER LOOP,Supply,2
     Plant Loop Connector Branches,1,Splitter,CHILLED WATER LOOP CNDW SUPPLY SPLITTER,CHILLED WATER LOOP CNDW SUPPLY INLET BRANCH,CHILLED WATER LOOP CNDW SUPPLY BYPASS BRANCH,CHILLED WATER LOOP CONDENSER WATER LOOP,Supply
     Plant Loop Connector Nodes,   1,Splitter,CHILLED WATER LOOP CNDW SUPPLY SPLITTER,CHILLED WATER LOOP CNDW PUMP OUTLET,CHILLED WATER LOOP CNDW SUPPLY BYPASS INLET,CHILLED WATER LOOP CONDENSER WATER LOOP,Supply
     Plant Loop Connector Branches,2,Splitter,CHILLED WATER LOOP CNDW SUPPLY SPLITTER,CHILLED WATER LOOP CNDW SUPPLY INLET BRANCH,MAIN TOWER CNDW BRANCH,CHILLED WATER LOOP CONDENSER WATER LOOP,Supply
     Plant Loop Connector Nodes,   2,Splitter,CHILLED WATER LOOP CNDW SUPPLY SPLITTER,CHILLED WATER LOOP CNDW PUMP OUTLET,MAIN TOWER CNDW INLET,CHILLED WATER LOOP CONDENSER WATER LOOP,Supply
   Plant Loop Connector,Mixer,CHILLED WATER LOOP CNDW SUPPLY MIXER,CHILLED WATER LOOP CONDENSER WATER LOOP,Supply,2
     Plant Loop Connector Branches,1,Mixer,CHILLED WATER LOOP CNDW SUPPLY MIXER,CHILLED WATER LOOP CNDW SUPPLY BYPASS BRANCH,CHILLED WATER LOOP CNDW SUPPLY OUTLET BRANCH,CHILLED WATER LOOP CONDENSER WATER LOOP,Supply
     Plant Loop Connector Nodes,   1,Mixer,CHILLED WATER LOOP CNDW SUPPLY MIXER,CHILLED WATER LOOP CNDW SUPPLY BYPASS OUTLET,CHILLED WATER LOOP CNDW SUPPLY OUTLET PIPE INLET,CHILLED WATER LOOP CONDENSER WATER LOOP,Supply
     Plant Loop Connector Branches,2,Mixer,CHILLED WATER LOOP CNDW SUPPLY MIXER,MAIN TOWER CNDW BRANCH,CHILLED WATER LOOP CNDW SUPPLY OUTLET BRANCH,CHILLED WATER LOOP CONDENSER WATER LOOP,Supply
     Plant Loop Connector Nodes,   2,Mixer,CHILLED WATER LOOP CNDW SUPPLY MIXER,MAIN TOWER CNDW OUTLET,CHILLED WATER LOOP CNDW SUPPLY OUTLET PIPE INLET,CHILLED WATER LOOP CONDENSER WATER LOOP,Supply
 Plant Loop Supply Connection,CHILLED WATER LOOP CONDENSER WATER LOOP,CHILLED WATER LOOP CNDW SUPPLY OUTLET,CHILLED WATER LOOP CNDW DEMAND INLET
 Plant Loop Return Connection,CHILLED WATER LOOP CONDENSER WATER LOOP,CHILLED WATER LOOP CNDW DEMAND OUTLET,CHILLED WATER LOOP CNDW SUPPLY INLET
! ===============================================================
! <# Controlled Zones>,<Number of Controlled Zones>
 #Controlled Zones,5
! <Controlled Zone>,<Controlled Zone Name>,<Equip List Name>,<Control List Name>,<Zone Node Name>,<# Inlet Nodes>,<# Exhaust Nodes>,<# Return Nodes>
! <Controlled Zone Inlet>,<Inlet Node Count>,<Controlled Zone Name>,<Supply Air Inlet Node Name>,<SD Sys:Cooling/Heating [DD:Cooling] Inlet Node Name>,<DD Sys:Heating Inlet Node Name>
! <Controlled Zone Exhaust>,<Exhaust Node Count>,<Controlled Zone Name>,<Exhaust Air Node Name>
 Controlled Zone,SPACE1-1,SPACE1-1 EQUIPMENT,,SPACE1-1 ZONE AIR NODE,2,1,1
   Controlled Zone Inlet,1,SPACE1-1,SPACE1-1 SUPPLY INLET,Undefined,N/A
   Controlled Zone Inlet,2,SPACE1-1,SPACE1-1 DOAS SUPPLY INLET,SPACE1-1 ZONE EQUIP INLET,N/A
   Controlled Zone Exhaust,1,SPACE1-1,SPACE1-1 FAN COIL RETURN
   Controlled Zone Return,1,SPACE1-1,SPACE1-1 RETURN OUTLET
 Controlled Zone,SPACE2-1,SPACE2-1 EQUIPMENT,,SPACE2-1 ZONE AIR NODE,2,1,1
   Controlled Zone Inlet,1,SPACE2-1,SPACE2-1 SUPPLY INLET,Undefined,N/A
   Controlled Zone Inlet,2,SPACE2-1,SPACE2-1 DOAS SUPPLY INLET,SPACE2-1 ZONE EQUIP INLET,N/A
   Controlled Zone Exhaust,1,SPACE2-1,SPACE2-1 FAN COIL RETURN
   Controlled Zone Return,1,SPACE2-1,SPACE2-1 RETURN OUTLET
 Controlled Zone,SPACE3-1,SPACE3-1 EQUIPMENT,,SPACE3-1 ZONE AIR NODE,2,1,1
   Controlled Zone Inlet,1,SPACE3-1,SPACE3-1 SUPPLY INLET,Undefined,N/A
   Controlled Zone Inlet,2,SPACE3-1,SPACE3-1 DOAS SUPPLY INLET,SPACE3-1 ZONE EQUIP INLET,N/A
   Controlled Zone Exhaust,1,SPACE3-1,SPACE3-1 FAN COIL RETURN
   Controlled Zone Return,1,SPACE3-1,SPACE3-1 RETURN OUTLET
 Controlled Zone,SPACE4-1,SPACE4-1 EQUIPMENT,,SPACE4-1 ZONE AIR NODE,2,1,1
   Controlled Zone Inlet,1,SPACE4-1,SPACE4-1 SUPPLY INLET,Undefined,N/A
   Controlled Zone Inlet,2,SPACE4-1,SPACE4-1 DOAS SUPPLY INLET,SPACE4-1 ZONE EQUIP INLET,N/A
   Controlled Zone Exhaust,1,SPACE4-1,SPACE4-1 FAN COIL RETURN
   Controlled Zone Return,1,SPACE4-1,SPACE4-1 RETURN OUTLET
 Controlled Zone,SPACE5-1,SPACE5-1 EQUIPMENT,,SPACE5-1 ZONE AIR NODE,2,1,1
   Controlled Zone Inlet,1,SPACE5-1,SPACE5-1 SUPPLY INLET,Undefined,N/A
   Controlled Zone Inlet,2,SPACE5-1,SPACE5-1 DOAS SUPPLY INLET,SPACE5-1 ZONE EQUIP INLET,N/A
   Controlled Zone Exhaust,1,SPACE5-1,SPACE5-1 FAN COIL RETURN
   Controlled Zone Return,1,SPACE5-1,SPACE5-1 RETURN OUTLET
! ===============================================================
! <#Zone Equipment Lists>,<Number of Zone Equipment Lists>
 #Zone Equipment Lists,5
! <Zone Equipment List>,<Zone Equipment List Count>,<Zone Equipment List Name>,<Zone Name>,<Number of Components>
! <Zone Equipment Component>,<Component Count>,<Component Type>,<Component Name>,<Zone Name>,<Heating Priority>,<Cooling Priority>
 Zone Equipment List,2,SPACE1-1 EQUIPMENT,SPACE1-1,2
   Zone Equipment Component,1,ZONEHVAC:AIRDISTRIBUTIONUNIT,SPACE1-1 DOAS ATU,SPACE1-1,1,1
   Zone Equipment Component,2,ZONEHVAC:FOURPIPEFANCOIL,SPACE1-1 FAN COIL,SPACE1-1,2,2
 Zone Equipment List,3,SPACE2-1 EQUIPMENT,SPACE2-1,2
   Zone Equipment Component,1,ZONEHVAC:AIRDISTRIBUTIONUNIT,SPACE2-1 DOAS ATU,SPACE2-1,1,1
   Zone Equipment Component,2,ZONEHVAC:FOURPIPEFANCOIL,SPACE2-1 FAN COIL,SPACE2-1,2,2
 Zone Equipment List,4,SPACE3-1 EQUIPMENT,SPACE3-1,2
   Zone Equipment Component,1,ZONEHVAC:AIRDISTRIBUTIONUNIT,SPACE3-1 DOAS ATU,SPACE3-1,1,1
   Zone Equipment Component,2,ZONEHVAC:FOURPIPEFANCOIL,SPACE3-1 FAN COIL,SPACE3-1,2,2
 Zone Equipment List,5,SPACE4-1 EQUIPMENT,SPACE4-1,2
   Zone Equipment Component,1,ZONEHVAC:AIRDISTRIBUTIONUNIT,SPACE4-1 DOAS ATU,SPACE4-1,1,1
   Zone Equipment Component,2,ZONEHVAC:FOURPIPEFANCOIL,SPACE4-1 FAN COIL,SPACE4-1,2,2
 Zone Equipment List,6,SPACE5-1 EQUIPMENT,SPACE5-1,2
   Zone Equipment Component,1,ZONEHVAC:AIRDISTRIBUTIONUNIT,SPACE5-1 DOAS ATU,SPACE5-1,1,1
   Zone Equipment Component,2,ZONEHVAC:FOURPIPEFANCOIL,SPACE5-1 FAN COIL,SPACE5-1,2,2
! ===============================================================
! <#AirLoopHVACs>,<Number of AirLoopHVACs>
 #AirLoopHVACs,1
! <AirLoopHVAC>,<Air Loop Name>,<# Return Nodes>,<# Supply Nodes>,<# Zones Cooled>,<# Zones Heated>,<Outdoor Air Used>
! <AirLoop Return Connections>,<Connection Count>,<AirLoopHVAC Name>,<Zn Eqp Return Node #>,<Zn Eqp Return Node Name>,<AirLoop Return Node #>,<Air Loop Return Node Name>
! <AirLoop Supply Connections>,<Connection Count>,<AirLoopHVAC Name>,<Zn Eqp Supply Node #>,<Zn Eqp Supply Node Name>,<AirLoop Supply Node #>,<Air Loop Supply Node Name>
! <Cooled Zone Info>,<Cooled Zone Count>,<Cooled Zone Name>,<Cooled Zone Inlet Node #>,<Cooled Zone Inlet Node Name>,<AirLoopHVAC Name>
! <Heated Zone Info>,<Heated Zone Count>,<Heated Zone Name>,<Heated Zone Inlet Node #>,<Heated Zone Inlet Node Name>,<AirLoopHVAC Name>
! <Outdoor Air Connections>,<OA Inlet Node #>,<OA Return Air Inlet Node Name>,<OA Outlet Node #>,<OA Mixed Air Outlet Node Name>,<AirLoopHVAC Name>
! <AirLoopHVAC Connector>,<Connector Type>,<Connector Name>,<Loop Name>,<Loop Type>,<Number of Inlets/Outlets>
! <AirLoopHVAC Connector Branches>,<Connector Node Count>,<Connector Type>,<Connector Name>,<Inlet Branch>,<Outlet Branch>,<Loop Name>,<Loop Type>
! <AirLoopHVAC Connector Nodes>,<Connector Node Count>,<Connector Type>,<Connector Name>,<Inlet Node>,<Outlet Node>,<Loop Name>,<Loop Type>
 AirLoopHVAC,DOAS,1,1,5,0,Yes
   AirLoop Return Connections,1,DOAS,100,DOAS RETURN AIR OUTLET,38,DOAS AIR LOOP INLET
   AirLoop Supply Connections,1,DOAS,99,DOAS SUPPLY PATH INLET,41,DOAS SUPPLY FAN OUTLET
   Cooled Zone Info,1,SPACE1-1,2,SPACE1-1 DOAS SUPPLY INLET,DOAS
   Cooled Zone Info,2,SPACE2-1,4,SPACE2-1 DOAS SUPPLY INLET,DOAS
   Cooled Zone Info,3,SPACE3-1,6,SPACE3-1 DOAS SUPPLY INLET,DOAS
   Cooled Zone Info,4,SPACE4-1,8,SPACE4-1 DOAS SUPPLY INLET,DOAS
   Cooled Zone Info,5,SPACE5-1,10,SPACE5-1 DOAS SUPPLY INLET,DOAS
   Outdoor Air Connections,38,DOAS AIR LOOP INLET,39,DOAS MIXED AIR OUTLET,DOAS
! ===============================================================
! <#Parent Node Connections>,<Number of Parent Node Connections>
 #Parent Node Connections,109
! <Parent Node Connection>,<Node Name>,<Node ObjectType>,<Node ObjectName>,<Node ConnectionType>,<Node FluidStream>
 Parent Node Connection,SPACE1-1 COOLING COIL CHW INLET,BRANCH,SPACE1-1 COOLING COIL CHW BRANCH,Inlet,1
 Parent Node Connection,SPACE1-1 COOLING COIL CHW OUTLET,BRANCH,SPACE1-1 COOLING COIL CHW BRANCH,Outlet,1
 Parent Node Connection,SPACE1-1 HEATING COIL HW INLET,BRANCH,SPACE1-1 HEATING COIL HW BRANCH,Inlet,1
 Parent Node Connection,SPACE1-1 HEATING COIL HW OUTLET,BRANCH,SPACE1-1 HEATING COIL HW BRANCH,Outlet,1
 Parent Node Connection,SPACE2-1 COOLING COIL CHW INLET,BRANCH,SPACE2-1 COOLING COIL CHW BRANCH,Inlet,1
 Parent Node Connection,SPACE2-1 COOLING COIL CHW OUTLET,BRANCH,SPACE2-1 COOLING COIL CHW BRANCH,Outlet,1
 Parent Node Connection,SPACE2-1 HEATING COIL HW INLET,BRANCH,SPACE2-1 HEATING COIL HW BRANCH,Inlet,1
 Parent Node Connection,SPACE2-1 HEATING COIL HW OUTLET,BRANCH,SPACE2-1 HEATING COIL HW BRANCH,Outlet,1
 Parent Node Connection,SPACE3-1 COOLING COIL CHW INLET,BRANCH,SPACE3-1 COOLING COIL CHW BRANCH,Inlet,1
 Parent Node Connection,SPACE3-1 COOLING COIL CHW OUTLET,BRANCH,SPACE3-1 COOLING COIL CHW BRANCH,Outlet,1
 Parent Node Connection,SPACE3-1 HEATING COIL HW INLET,BRANCH,SPACE3-1 HEATING COIL HW BRANCH,Inlet,1
 Parent Node Connection,SPACE3-1 HEATING COIL HW OUTLET,BRANCH,SPACE3-1 HEATING COIL HW BRANCH,Outlet,1
 Parent Node Connection,SPACE4-1 COOLING COIL CHW INLET,BRANCH,SPACE4-1 COOLING COIL CHW BRANCH,Inlet,1
 Parent Node Connection,SPACE4-1 COOLING COIL CHW OUTLET,BRANCH,SPACE4-1 COOLING COIL CHW BRANCH,Outlet,1
 Parent Node Connection,SPACE4-1 HEATING COIL HW INLET,BRANCH,SPACE4-1 HEATING COIL HW BRANCH,Inlet,1
 Parent Node Connection,SPACE4-1 HEATING COIL HW OUTLET,BRANCH,SPACE4-1 HEATING COIL HW BRANCH,Outlet,1
 Parent Node Connection,SPACE5-1 COOLING COIL CHW INLET,BRANCH,SPACE5-1 COOLING COIL CHW BRANCH,Inlet,1
 Parent Node Connection,SPACE5-1 COOLING COIL CHW OUTLET,BRANCH,SPACE5-1 COOLING COIL CHW BRANCH,Outlet,1
 Parent Node Connection,SPACE5-1 HEATING COIL HW INLET,BRANCH,SPACE5-1 HEATING COIL HW BRANCH,Inlet,1
 Parent Node Connection,SPACE5-1 HEATING COIL HW OUTLET,BRANCH,SPACE5-1 HEATING COIL HW BRANCH,Outlet,1
 Parent Node Connection,DOAS AIR LOOP INLET,BRANCH,DOAS MAIN BRANCH,Inlet,1
 Parent Node Connection,DOAS MIXED AIR OUTLET,BRANCH,DOAS MAIN BRANCH,Internal,1
 Parent Node Connection,DOAS COOLING COIL OUTLET,BRANCH,DOAS MAIN BRANCH,Internal,1
 Parent Node Connection,DOAS HEATING COIL OUTLET,BRANCH,DOAS MAIN BRANCH,Internal,1
 Parent Node Connection,DOAS SUPPLY FAN OUTLET,BRANCH,DOAS MAIN BRANCH,Outlet,1
 Parent Node Connection,DOAS COOLING COIL CHW INLET,BRANCH,DOAS COOLING COIL CHW BRANCH,Inlet,1
 Parent Node Connection,DOAS COOLING COIL CHW OUTLET,BRANCH,DOAS COOLING COIL CHW BRANCH,Outlet,1
 Parent Node Connection,DOAS HEATING COIL HW INLET,BRANCH,DOAS HEATING COIL HW BRANCH,Inlet,1
 Parent Node Connection,DOAS HEATING COIL HW OUTLET,BRANCH,DOAS HEATING COIL HW BRANCH,Outlet,1
 Parent Node Connection,MAIN BOILER HW INLET,BRANCH,MAIN BOILER HW BRANCH,Inlet,1
 Parent Node Connection,MAIN BOILER HW OUTLET,BRANCH,MAIN BOILER HW BRANCH,Outlet,1
 Parent Node Connection,MAIN CHILLER CHW INLET,BRANCH,MAIN CHILLER CHW BRANCH,Inlet,1
 Parent Node Connection,MAIN CHILLER CHW OUTLET,BRANCH,MAIN CHILLER CHW BRANCH,Outlet,1
 Parent Node Connection,MAIN CHILLER CND INLET,BRANCH,MAIN CHILLER CNDW BRANCH,Inlet,1
 Parent Node Connection,MAIN CHILLER CND OUTLET,BRANCH,MAIN CHILLER CNDW BRANCH,Outlet,1
 Parent Node Connection,MAIN TOWER CNDW INLET,BRANCH,MAIN TOWER CNDW BRANCH,Inlet,1
 Parent Node Connection,MAIN TOWER CNDW OUTLET,BRANCH,MAIN TOWER CNDW BRANCH,Outlet,1
 Parent Node Connection,HOT WATER LOOP HW SUPPLY BYPASS INLET,BRANCH,HOT WATER LOOP HW SUPPLY BYPASS BRANCH,Inlet,1
 Parent Node Connection,HOT WATER LOOP HW SUPPLY BYPASS OUTLET,BRANCH,HOT WATER LOOP HW SUPPLY BYPASS BRANCH,Outlet,1
 Parent Node Connection,HOT WATER LOOP HW SUPPLY INLET,BRANCH,HOT WATER LOOP HW SUPPLY INLET BRANCH,Inlet,1
 Parent Node Connection,HOT WATER LOOP HW PUMP OUTLET,BRANCH,HOT WATER LOOP HW SUPPLY INLET BRANCH,Outlet,1
 Parent Node Connection,HOT WATER LOOP HW SUPPLY OUTLET PIPE INLET,BRANCH,HOT WATER LOOP HW SUPPLY OUTLET BRANCH,Inlet,1
 Parent Node Connection,HOT WATER LOOP HW SUPPLY OUTLET,BRANCH,HOT WATER LOOP HW SUPPLY OUTLET BRANCH,Outlet,1
 Parent Node Connection,HOT WATER LOOP HW DEMAND INLET,BRANCH,HOT WATER LOOP HW DEMAND INLET BRANCH,Inlet,1
 Parent Node Connection,HOT WATER LOOP HW DEMAND INLET PIPE OUTLET,BRANCH,HOT WATER LOOP HW DEMAND INLET BRANCH,Outlet,1
 Parent Node Connection,HOT WATER LOOP HW DEMAND BYPASS INLET,BRANCH,HOT WATER LOOP HW DEMAND BYPASS BRANCH,Inlet,1
 Parent Node Connection,HOT WATER LOOP HW DEMAND BYPASS OUTLET,BRANCH,HOT WATER LOOP HW DEMAND BYPASS BRANCH,Outlet,1
 Parent Node Connection,HOT WATER LOOP HW DEMAND OUTLET PIPE INLET,BRANCH,HOT WATER LOOP HW DEMAND OUTLET BRANCH,Inlet,1
 Parent Node Connection,HOT WATER LOOP HW DEMAND OUTLET,BRANCH,HOT WATER LOOP HW DEMAND OUTLET BRANCH,Outlet,1
 Parent Node Connection,CHILLED WATER LOOP CHW SUPPLY BYPASS INLET,BRANCH,CHILLED WATER LOOP CHW SUPPLY BYPASS BRANCH,Inlet,1
 Parent Node Connection,CHILLED WATER LOOP CHW SUPPLY BYPASS OUTLET,BRANCH,CHILLED WATER LOOP CHW SUPPLY BYPASS BRANCH,Outlet,1
 Parent Node Connection,CHILLED WATER LOOP CHW SUPPLY INLET,BRANCH,CHILLED WATER LOOP CHW SUPPLY INLET BRANCH,Inlet,1
 Parent Node Connection,CHILLED WATER LOOP CHW PUMP OUTLET,BRANCH,CHILLED WATER LOOP CHW SUPPLY INLET BRANCH,Outlet,1
 Parent Node Connection,CHILLED WATER LOOP CHW SUPPLY OUTLET PIPE INLET,BRANCH,CHILLED WATER LOOP CHW SUPPLY OUTLET BRANCH,Inlet,1
 Parent Node Connection,CHILLED WATER LOOP CHW SUPPLY OUTLET,BRANCH,CHILLED WATER LOOP CHW SUPPLY OUTLET BRANCH,Outlet,1
 Parent Node Connection,CHILLED WATER LOOP CHW DEMAND INLET,BRANCH,CHILLED WATER LOOP CHW DEMAND INLET BRANCH,Inlet,1
 Parent Node Connection,CHILLED WATER LOOP CHW DEMAND INLET PIPE OUTLET,BRANCH,CHILLED WATER LOOP CHW DEMAND INLET BRANCH,Outlet,1
 Parent Node Connection,CHILLED WATER LOOP CHW DEMAND BYPASS INLET,BRANCH,CHILLED WATER LOOP CHW DEMAND BYPASS BRANCH,Inlet,1
 Parent Node Connection,CHILLED WATER LOOP CHW DEMAND BYPASS OUTLET,BRANCH,CHILLED WATER LOOP CHW DEMAND BYPASS BRANCH,Outlet,1
 Parent Node Connection,CHILLED WATER LOOP CHW DEMAND OUTLET PIPE INLET,BRANCH,CHILLED WATER LOOP CHW DEMAND OUTLET BRANCH,Inlet,1
 Parent Node Connection,CHILLED WATER LOOP CHW DEMAND OUTLET,BRANCH,CHILLED WATER LOOP CHW DEMAND OUTLET BRANCH,Outlet,1
 Parent Node Connection,CHILLED WATER LOOP CNDW SUPPLY INLET,BRANCH,CHILLED WATER LOOP CNDW SUPPLY INLET BRANCH,Inlet,1
 Parent Node Connection,CHILLED WATER LOOP CNDW PUMP OUTLET,BRANCH,CHILLED WATER LOOP CNDW SUPPLY INLET BRANCH,Outlet,1
 Parent Node Connection,CHILLED WATER LOOP CNDW SUPPLY OUTLET PIPE INLET,BRANCH,CHILLED WATER LOOP CNDW SUPPLY OUTLET BRANCH,Inlet,1
 Parent Node Connection,CHILLED WATER LOOP CNDW SUPPLY OUTLET,BRANCH,CHILLED WATER LOOP CNDW SUPPLY OUTLET BRANCH,Outlet,1
 Parent Node Connection,CHILLED WATER LOOP CNDW SUPPLY BYPASS INLET,BRANCH,CHILLED WATER LOOP CNDW SUPPLY BYPASS BRANCH,Inlet,1
 Parent Node Connection,CHILLED WATER LOOP CNDW SUPPLY BYPASS OUTLET,BRANCH,CHILLED WATER LOOP CNDW SUPPLY BYPASS BRANCH,Outlet,1
 Parent Node Connection,CHILLED WATER LOOP CNDW DEMAND INLET,BRANCH,CHILLED WATER LOOP CNDW DEMAND INLET BRANCH,Inlet,1
 Parent Node Connection,CHILLED WATER LOOP CNDW DEMAND INLET PIPE OUTLET,BRANCH,CHILLED WATER LOOP CNDW DEMAND INLET BRANCH,Outlet,1
 Parent Node Connection,CHILLED WATER LOOP CNDW DEMAND BYPASS INLET,BRANCH,CHILLED WATER LOOP CNDW DEMAND BYPASS BRANCH,Inlet,1
 Parent Node Connection,CHILLED WATER LOOP CNDW DEMAND BYPASS OUTLET,BRANCH,CHILLED WATER LOOP CNDW DEMAND BYPASS BRANCH,Outlet,1
 Parent Node Connection,CHILLED WATER LOOP CNDW DEMAND OUTLET PIPE INLET,BRANCH,CHILLED WATER LOOP CNDW DEMAND OUTLET BRANCH,Inlet,1
 Parent Node Connection,CHILLED WATER LOOP CNDW DEMAND OUTLET,BRANCH,CHILLED WATER LOOP CNDW DEMAND OUTLET BRANCH,Outlet,1
 Parent Node Connection,DOAS SUPPLY PATH INLET,AIRLOOPHVAC:SUPPLYPATH,DOAS SUPPLY PATH,Inlet,1
 Parent Node Connection,DOAS RETURN AIR OUTLET,AIRLOOPHVAC:RETURNPATH,DOAS RETURN PATH,Outlet,1
 Parent Node Connection,HOT WATER LOOP HW SUPPLY INLET,PLANTLOOP,HOT WATER LOOP HOT WATER LOOP,Inlet,1
 Parent Node Connection,HOT WATER LOOP HW SUPPLY OUTLET,PLANTLOOP,HOT WATER LOOP HOT WATER LOOP,Outlet,1
 Parent Node Connection,HOT WATER LOOP HW DEMAND INLET,PLANTLOOP,HOT WATER LOOP HOT WATER LOOP,Inlet,1
 Parent Node Connection,HOT WATER LOOP HW DEMAND OUTLET,PLANTLOOP,HOT WATER LOOP HOT WATER LOOP,Outlet,1
 Parent Node Connection,HOT WATER LOOP HW SUPPLY OUTLET,PLANTLOOP,HOT WATER LOOP HOT WATER LOOP,Sensor,1
 Parent Node Connection,CHILLED WATER LOOP CHW SUPPLY INLET,PLANTLOOP,CHILLED WATER LOOP CHILLED WATER LOOP,Inlet,1
 Parent Node Connection,CHILLED WATER LOOP CHW SUPPLY OUTLET,PLANTLOOP,CHILLED WATER LOOP CHILLED WATER LOOP,Outlet,1
 Parent Node Connection,CHILLED WATER LOOP CHW DEMAND INLET,PLANTLOOP,CHILLED WATER LOOP CHILLED WATER LOOP,Inlet,1
 Parent Node Connection,CHILLED WATER LOOP CHW DEMAND OUTLET,PLANTLOOP,CHILLED WATER LOOP CHILLED WATER LOOP,Outlet,1
 Parent Node Connection,CHILLED WATER LOOP CHW SUPPLY OUTLET,PLANTLOOP,CHILLED WATER LOOP CHILLED WATER LOOP,Sensor,1
 Parent Node Connection,CHILLED WATER LOOP CNDW SUPPLY INLET,CONDENSERLOOP,CHILLED WATER LOOP CONDENSER WATER LOOP,Inlet,1
 Parent Node Connection,CHILLED WATER LOOP CNDW SUPPLY OUTLET,CONDENSERLOOP,CHILLED WATER LOOP CONDENSER WATER LOOP,Outlet,1
 Parent Node Connection,CHILLED WATER LOOP CNDW DEMAND INLET,CONDENSERLOOP,CHILLED WATER LOOP CONDENSER WATER LOOP,Inlet,1
 Parent Node Connection,CHILLED WATER LOOP CNDW DEMAND OUTLET,CONDENSERLOOP,CHILLED WATER LOOP CONDENSER WATER LOOP,Outlet,1
 Parent Node Connection,CHILLED WATER LOOP CNDW SUPPLY OUTLET,CONDENSERLOOP,CHILLED WATER LOOP CONDENSER WATER LOOP,Sensor,1
 Parent Node Connection,SPACE1-1 DOAS SUPPLY INLET,ZONEHVAC:AIRDISTRIBUTIONUNIT,SPACE1-1 DOAS ATU,Outlet,1
 Parent Node Connection,SPACE2-1 DOAS SUPPLY INLET,ZONEHVAC:AIRDISTRIBUTIONUNIT,SPACE2-1 DOAS ATU,Outlet,1
 Parent Node Connection,SPACE3-1 DOAS SUPPLY INLET,ZONEHVAC:AIRDISTRIBUTIONUNIT,SPACE3-1 DOAS ATU,Outlet,1
 Parent Node Connection,SPACE4-1 DOAS SUPPLY INLET,ZONEHVAC:AIRDISTRIBUTIONUNIT,SPACE4-1 DOAS ATU,Outlet,1
 Parent Node Connection,SPACE5-1 DOAS SUPPLY INLET,ZONEHVAC:AIRDISTRIBUTIONUNIT,SPACE5-1 DOAS ATU,Outlet,1
 Parent Node Connection,SPACE1-1 FAN COIL RETURN,ZONEHVAC:FOURPIPEFANCOIL,SPACE1-1 FAN COIL,Inlet,1
 Parent Node Connection,SPACE1-1 SUPPLY INLET,ZONEHVAC:FOURPIPEFANCOIL,SPACE1-1 FAN COIL,Outlet,1
 Parent Node Connection,SPACE2-1 FAN COIL RETURN,ZONEHVAC:FOURPIPEFANCOIL,SPACE2-1 FAN COIL,Inlet,1
 Parent Node Connection,SPACE2-1 SUPPLY INLET,ZONEHVAC:FOURPIPEFANCOIL,SPACE2-1 FAN COIL,Outlet,1
 Parent Node Connection,SPACE3-1 FAN COIL RETURN,ZONEHVAC:FOURPIPEFANCOIL,SPACE3-1 FAN COIL,Inlet,1
 Parent Node Connection,SPACE3-1 SUPPLY INLET,ZONEHVAC:FOURPIPEFANCOIL,SPACE3-1 FAN COIL,Outlet,1
 Parent Node Connection,SPACE4-1 FAN COIL RETURN,ZONEHVAC:FOURPIPEFANCOIL,SPACE4-1 FAN COIL,Inlet,1
 Parent Node Connection,SPACE4-1 SUPPLY INLET,ZONEHVAC:FOURPIPEFANCOIL,SPACE4-1 FAN COIL,Outlet,1
 Parent Node Connection,SPACE5-1 FAN COIL RETURN,ZONEHVAC:FOURPIPEFANCOIL,SPACE5-1 FAN COIL,Inlet,1
 Parent Node Connection,SPACE5-1 SUPPLY INLET,ZONEHVAC:FOURPIPEFANCOIL,SPACE5-1 FAN COIL,Outlet,1
 Parent Node Connection,DOAS AIR LOOP INLET,AIRLOOPHVAC,DOAS,Inlet,1
 Parent Node Connection,DOAS RETURN AIR OUTLET,AIRLOOPHVAC,DOAS,Outlet,1
 Parent Node Connection,DOAS SUPPLY PATH INLET,AIRLOOPHVAC,DOAS,Inlet,1
 Parent Node Connection,DOAS SUPPLY FAN OUTLET,AIRLOOPHVAC,DOAS,Outlet,1
! ===============================================================
! <#Non-Parent Node Connections>,<Number of Non-Parent Node Connections>
 #Non-Parent Node Connections,273
! <Non-Parent Node Connection>,<Node Name>,<Node ObjectType>,<Node ObjectName>,<Node ConnectionType>,<Node FluidStream>
 Non-Parent Node Connection,SPACE1-1 ZONE AIR NODE,ZONEHVAC:EQUIPMENTCONNECTIONS,SPACE1-1,ZoneNode,1
 Non-Parent Node Connection,SPACE1-1 SUPPLY INLET,ZONEHVAC:EQUIPMENTCONNECTIONS,SPACE1-1,ZoneInlet,1
 Non-Parent Node Connection,SPACE1-1 DOAS SUPPLY INLET,ZONEHVAC:EQUIPMENTCONNECTIONS,SPACE1-1,ZoneInlet,1
 Non-Parent Node Connection,SPACE1-1 FAN COIL RETURN,ZONEHVAC:EQUIPMENTCONNECTIONS,SPACE1-1,ZoneExhaust,1
 Non-Parent Node Connection,SPACE1-1 RETURN OUTLET,ZONEHVAC:EQUIPMENTCONNECTIONS,SPACE1-1,ZoneReturn,1
 Non-Parent Node Connection,SPACE2-1 ZONE AIR NODE,ZONEHVAC:EQUIPMENTCONNECTIONS,SPACE2-1,ZoneNode,1
 Non-Parent Node Connection,SPACE2-1 SUPPLY INLET,ZONEHVAC:EQUIPMENTCONNECTIONS,SPACE2-1,ZoneInlet,1
 Non-Parent Node Connection,SPACE2-1 DOAS SUPPLY INLET,ZONEHVAC:EQUIPMENTCONNECTIONS,SPACE2-1,ZoneInlet,1
 Non-Parent Node Connection,SPACE2-1 FAN COIL RETURN,ZONEHVAC:EQUIPMENTCONNECTIONS,SPACE2-1,ZoneExhaust,1
 Non-Parent Node Connection,SPACE2-1 RETURN OUTLET,ZONEHVAC:EQUIPMENTCONNECTIONS,SPACE2-1,ZoneReturn,1
 Non-Parent Node Connection,SPACE3-1 ZONE AIR NODE,ZONEHVAC:EQUIPMENTCONNECTIONS,SPACE3-1,ZoneNode,1
 Non-Parent Node Connection,SPACE3-1 SUPPLY INLET,ZONEHVAC:EQUIPMENTCONNECTIONS,SPACE3-1,ZoneInlet,1
 Non-Parent Node Connection,SPACE3-1 DOAS SUPPLY INLET,ZONEHVAC:EQUIPMENTCONNECTIONS,SPACE3-1,ZoneInlet,1
 Non-Parent Node Connection,SPACE3-1 FAN COIL RETURN,ZONEHVAC:EQUIPMENTCONNECTIONS,SPACE3-1,ZoneExhaust,1
 Non-Parent Node Connection,SPACE3-1 RETURN OUTLET,ZONEHVAC:EQUIPMENTCONNECTIONS,SPACE3-1,ZoneReturn,1
 Non-Parent Node Connection,SPACE4-1 ZONE AIR NODE,ZONEHVAC:EQUIPMENTCONNECTIONS,SPACE4-1,ZoneNode,1
 Non-Parent Node Connection,SPACE4-1 SUPPLY INLET,ZONEHVAC:EQUIPMENTCONNECTIONS,SPACE4-1,ZoneInlet,1
 Non-Parent Node Connection,SPACE4-1 DOAS SUPPLY INLET,ZONEHVAC:EQUIPMENTCONNECTIONS,SPACE4-1,ZoneInlet,1
 Non-Parent Node Connection,SPACE4-1 FAN COIL RETURN,ZONEHVAC:EQUIPMENTCONNECTIONS,SPACE4-1,ZoneExhaust,1
 Non-Parent Node Connection,SPACE4-1 RETURN OUTLET,ZONEHVAC:EQUIPMENTCONNECTIONS,SPACE4-1,ZoneReturn,1
 Non-Parent Node Connection,SPACE5-1 ZONE AIR NODE,ZONEHVAC:EQUIPMENTCONNECTIONS,SPACE5-1,ZoneNode,1
 Non-Parent Node Connection,SPACE5-1 SUPPLY INLET,ZONEHVAC:EQUIPMENTCONNECTIONS,SPACE5-1,ZoneInlet,1
 Non-Parent Node Connection,SPACE5-1 DOAS SUPPLY INLET,ZONEHVAC:EQUIPMENTCONNECTIONS,SPACE5-1,ZoneInlet,1
 Non-Parent Node Connection,SPACE5-1 FAN COIL RETURN,ZONEHVAC:EQUIPMENTCONNECTIONS,SPACE5-1,ZoneExhaust,1
 Non-Parent Node Connection,SPACE5-1 RETURN OUTLET,ZONEHVAC:EQUIPMENTCONNECTIONS,SPACE5-1,ZoneReturn,1
 Non-Parent Node Connection,SPACE1-1 OUTSIDE AIR INLET,OUTDOORAIR:NODELIST,OutdoorAir:NodeList,OutdoorAir,1
 Non-Parent Node Connection,SPACE2-1 OUTSIDE AIR INLET,OUTDOORAIR:NODELIST,OutdoorAir:NodeList,OutdoorAir,2
 Non-Parent Node Connection,SPACE3-1 OUTSIDE AIR INLET,OUTDOORAIR:NODELIST,OutdoorAir:NodeList,OutdoorAir,3
 Non-Parent Node Connection,SPACE4-1 OUTSIDE AIR INLET,OUTDOORAIR:NODELIST,OutdoorAir:NodeList,OutdoorAir,4
 Non-Parent Node Connection,SPACE5-1 OUTSIDE AIR INLET,OUTDOORAIR:NODELIST,OutdoorAir:NodeList,OutdoorAir,5
 Non-Parent Node Connection,DOAS OUTDOOR AIR INLET,OUTDOORAIR:NODELIST,OutdoorAir:NodeList,OutdoorAir,6
 Non-Parent Node Connection,MAIN TOWER COOLING TOWER OUTDOOR AIR INLET NODE,OUTDOORAIR:NODE,OutdoorAir:Node,OutdoorAir,7
 Non-Parent Node Connection,MAIN TOWER CNDW OUTLET,SETPOINTMANAGER:SCHEDULED,CHILLED WATER LOOP CNDW TEMP MANAGER,Setpoint,1
 Non-Parent Node Connection,CHILLED WATER LOOP CNDW SUPPLY OUTLET,SETPOINTMANAGER:SCHEDULED,CHILLED WATER LOOP CNDW TEMP MANAGER,Setpoint,1
 Non-Parent Node Connection,DOAS SUPPLY PATH INLET,SETPOINTMANAGER:SCHEDULED,DOAS HEATING SUPPLY AIR TEMP MANAGER,Setpoint,1
 Non-Parent Node Connection,DOAS SUPPLY FAN OUTLET,SETPOINTMANAGER:OUTDOORAIRRESET,DOAS COOLING SUPPLY AIR TEMP MANAGER,Setpoint,1
 Non-Parent Node Connection,MAIN BOILER HW OUTLET,SETPOINTMANAGER:OUTDOORAIRRESET,HOT WATER LOOP HW TEMP MANAGER,Setpoint,1
 Non-Parent Node Connection,HOT WATER LOOP HW SUPPLY OUTLET,SETPOINTMANAGER:OUTDOORAIRRESET,HOT WATER LOOP HW TEMP MANAGER,Setpoint,1
 Non-Parent Node Connection,MAIN CHILLER CHW OUTLET,SETPOINTMANAGER:OUTDOORAIRRESET,CHILLED WATER LOOP CHW TEMP MANAGER,Setpoint,1
 Non-Parent Node Connection,CHILLED WATER LOOP CHW SUPPLY OUTLET,SETPOINTMANAGER:OUTDOORAIRRESET,CHILLED WATER LOOP CHW TEMP MANAGER,Setpoint,1
 Non-Parent Node Connection,DOAS SUPPLY FAN OUTLET,SETPOINTMANAGER:MIXEDAIR,DOAS COOLING COIL AIR TEMP MANAGER,Sensor,1
 Non-Parent Node Connection,DOAS HEATING COIL OUTLET,SETPOINTMANAGER:MIXEDAIR,DOAS COOLING COIL AIR TEMP MANAGER,Sensor,1
 Non-Parent Node Connection,DOAS COOLING COIL OUTLET,SETPOINTMANAGER:MIXEDAIR,DOAS COOLING COIL AIR TEMP MANAGER,Setpoint,1
 Non-Parent Node Connection,DOAS SUPPLY PATH INLET,SETPOINTMANAGER:MIXEDAIR,DOAS HEATING COIL AIR TEMP MANAGER,Sensor,1
 Non-Parent Node Connection,DOAS HEATING COIL OUTLET,SETPOINTMANAGER:MIXEDAIR,DOAS HEATING COIL AIR TEMP MANAGER,Sensor,1
 Non-Parent Node Connection,DOAS SUPPLY FAN OUTLET,SETPOINTMANAGER:MIXEDAIR,DOAS HEATING COIL AIR TEMP MANAGER,Sensor,1
 Non-Parent Node Connection,DOAS HEATING COIL OUTLET,SETPOINTMANAGER:MIXEDAIR,DOAS HEATING COIL AIR TEMP MANAGER,Setpoint,1
 Non-Parent Node Connection,DOAS SUPPLY PATH INLET,SETPOINTMANAGER:MIXEDAIR,DOAS HEAT RECOVERY AIR TEMP MANAGER,Sensor,1
 Non-Parent Node Connection,DOAS HEATING COIL OUTLET,SETPOINTMANAGER:MIXEDAIR,DOAS HEAT RECOVERY AIR TEMP MANAGER,Sensor,1
 Non-Parent Node Connection,DOAS SUPPLY FAN OUTLET,SETPOINTMANAGER:MIXEDAIR,DOAS HEAT RECOVERY AIR TEMP MANAGER,Sensor,1
 Non-Parent Node Connection,DOAS HEAT RECOVERY SUPPLY OUTLET,SETPOINTMANAGER:MIXEDAIR,DOAS HEAT RECOVERY AIR TEMP MANAGER,Setpoint,1
 Non-Parent Node Connection,DOAS SUPPLY FAN OUTLET,SETPOINTMANAGER:MIXEDAIR,DOAS HEAT RECOVERY ECONOMIZER TEMP MANAGER,Sensor,1
 Non-Parent Node Connection,DOAS HEATING COIL OUTLET,SETPOINTMANAGER:MIXEDAIR,DOAS HEAT RECOVERY ECONOMIZER TEMP MANAGER,Sensor,1
 Non-Parent Node Connection,DOAS MIXED AIR OUTLET,SETPOINTMANAGER:MIXEDAIR,DOAS HEAT RECOVERY ECONOMIZER TEMP MANAGER,Setpoint,1
 Non-Parent Node Connection,HOT WATER LOOP HW SUPPLY BYPASS INLET,PIPE:ADIABATIC,HOT WATER LOOP HW SUPPLY SIDE BYPASS PIPE,Inlet,1
 Non-Parent Node Connection,HOT WATER LOOP HW SUPPLY BYPASS OUTLET,PIPE:ADIABATIC,HOT WATER LOOP HW SUPPLY SIDE BYPASS PIPE,Outlet,1
 Non-Parent Node Connection,HOT WATER LOOP HW SUPPLY OUTLET PIPE INLET,PIPE:ADIABATIC,HOT WATER LOOP HW SUPPLY OUTLET PIPE,Inlet,1
 Non-Parent Node Connection,HOT WATER LOOP HW SUPPLY OUTLET,PIPE:ADIABATIC,HOT WATER LOOP HW SUPPLY OUTLET PIPE,Outlet,1
 Non-Parent Node Connection,HOT WATER LOOP HW DEMAND INLET,PIPE:ADIABATIC,HOT WATER LOOP HW DEMAND INLET PIPE,Inlet,1
 Non-Parent Node Connection,HOT WATER LOOP HW DEMAND INLET PIPE OUTLET,PIPE:ADIABATIC,HOT WATER LOOP HW DEMAND INLET PIPE,Outlet,1
 Non-Parent Node Connection,HOT WATER LOOP HW DEMAND BYPASS INLET,PIPE:ADIABATIC,HOT WATER LOOP HW DEMAND SIDE BYPASS PIPE,Inlet,1
 Non-Parent Node Connection,HOT WATER LOOP HW DEMAND BYPASS OUTLET,PIPE:ADIABATIC,HOT WATER LOOP HW DEMAND SIDE BYPASS PIPE,Outlet,1
[...]
 Non-Parent Node Connection,SPACE2-1 HEATING COIL HW OUTLET,CONNECTOR:MIXER,HOT WATER LOOP HW DEMAND MIXER,Inlet,1
 Non-Parent Node Connection,SPACE3-1 HEATING COIL HW OUTLET,CONNECTOR:MIXER,HOT WATER LOOP HW DEMAND MIXER,Inlet,1
 Non-Parent Node Connection,SPACE4-1 HEATING COIL HW OUTLET,CONNECTOR:MIXER,HOT WATER LOOP HW DEMAND MIXER,Inlet,1
 Non-Parent Node Connection,SPACE5-1 HEATING COIL HW OUTLET,CONNECTOR:MIXER,HOT WATER LOOP HW DEMAND MIXER,Inlet,1
 Non-Parent Node Connection,DOAS HEATING COIL HW OUTLET,CONNECTOR:MIXER,HOT WATER LOOP HW DEMAND MIXER,Inlet,1
 Non-Parent Node Connection,HOT WATER LOOP HW PUMP OUTLET,CONNECTOR:SPLITTER,HOT WATER LOOP HW SUPPLY SPLITTER,Inlet,1
 Non-Parent Node Connection,MAIN BOILER HW INLET,CONNECTOR:SPLITTER,HOT WATER LOOP HW SUPPLY SPLITTER,Outlet,1
 Non-Parent Node Connection,HOT WATER LOOP HW SUPPLY BYPASS INLET,CONNECTOR:SPLITTER,HOT WATER LOOP HW SUPPLY SPLITTER,Outlet,1
 Non-Parent Node Connection,HOT WATER LOOP HW SUPPLY OUTLET PIPE INLET,CONNECTOR:MIXER,HOT WATER LOOP HW SUPPLY MIXER,Outlet,1
 Non-Parent Node Connection,MAIN BOILER HW OUTLET,CONNECTOR:MIXER,HOT WATER LOOP HW SUPPLY MIXER,Inlet,1
 Non-Parent Node Connection,HOT WATER LOOP HW SUPPLY BYPASS OUTLET,CONNECTOR:MIXER,HOT WATER LOOP HW SUPPLY MIXER,Inlet,1
 Non-Parent Node Connection,CHILLED WATER LOOP CHW DEMAND INLET PIPE OUTLET,CONNECTOR:SPLITTER,CHILLED WATER LOOP CHW DEMAND SPLITTER,Inlet,1
 Non-Parent Node Connection,CHILLED WATER LOOP CHW DEMAND BYPASS INLET,CONNECTOR:SPLITTER,CHILLED WATER LOOP CHW DEMAND SPLITTER,Outlet,1
 Non-Parent Node Connection,SPACE1-1 COOLING COIL CHW INLET,CONNECTOR:SPLITTER,CHILLED WATER LOOP CHW DEMAND SPLITTER,Outlet,1
 Non-Parent Node Connection,SPACE2-1 COOLING COIL CHW INLET,CONNECTOR:SPLITTER,CHILLED WATER LOOP CHW DEMAND SPLITTER,Outlet,1
 Non-Parent Node Connection,SPACE3-1 COOLING COIL CHW INLET,CONNECTOR:SPLITTER,CHILLED WATER LOOP CHW DEMAND SPLITTER,Outlet,1
 Non-Parent Node Connection,SPACE4-1 COOLING COIL CHW INLET,CONNECTOR:SPLITTER,CHILLED WATER LOOP CHW DEMAND SPLITTER,Outlet,1
 Non-Parent Node Connection,SPACE5-1 COOLING COIL CHW INLET,CONNECTOR:SPLITTER,CHILLED WATER LOOP CHW DEMAND SPLITTER,Outlet,1
 Non-Parent Node Connection,DOAS COOLING COIL CHW INLET,CONNECTOR:SPLITTER,CHILLED WATER LOOP CHW DEMAND SPLITTER,Outlet,1
 Non-Parent Node Connection,CHILLED WATER LOOP CHW DEMAND OUTLET PIPE INLET,CONNECTOR:MIXER,CHILLED WATER LOOP CHW DEMAND MIXER,Outlet,1
 Non-Parent Node Connection,CHILLED WATER LOOP CHW DEMAND BYPASS OUTLET,CONNECTOR:MIXER,CHILLED WATER LOOP CHW DEMAND MIXER,Inlet,1
 Non-Parent Node Connection,SPACE1-1 COOLING COIL CHW OUTLET,CONNECTOR:MIXER,CHILLED WATER LOOP CHW DEMAND MIXER,Inlet,1
 Non-Parent Node Connection,SPACE2-1 COOLING COIL CHW OUTLET,CONNECTOR:MIXER,CHILLED WATER LOOP CHW DEMAND MIXER,Inlet,1
 Non-Parent Node Connection,SPACE3-1 COOLING COIL CHW OUTLET,CONNECTOR:MIXER,CHILLED WATER LOOP CHW DEMAND MIXER,Inlet,1
 Non-Parent Node Connection,SPACE4-1 COOLING COIL CHW OUTLET,CONNECTOR:MIXER,CHILLED WATER LOOP CHW DEMAND MIXER,Inlet,1
 Non-Parent Node Connection,SPACE5-1 COOLING COIL CHW OUTLET,CONNECTOR:MIXER,CHILLED WATER LOOP CHW DEMAND MIXER,Inlet,1
 Non-Parent Node Connection,DOAS COOLING COIL CHW OUTLET,CONNECTOR:MIXER,CHILLED WATER LOOP CHW DEMAND MIXER,Inlet,1
 Non-Parent Node Connection,CHILLED WATER LOOP CHW PUMP OUTLET,CONNECTOR:SPLITTER,CHILLED WATER LOOP CHW SUPPLY SPLITTER,Inlet,1
 Non-Parent Node Connection,CHILLED WATER LOOP CHW SUPPLY BYPASS INLET,CONNECTOR:SPLITTER,CHILLED WATER LOOP CHW SUPPLY SPLITTER,Outlet,1
 Non-Parent Node Connection,MAIN CHILLER CHW INLET,CONNECTOR:SPLITTER,CHILLED WATER LOOP CHW SUPPLY SPLITTER,Outlet,1
 Non-Parent Node Connection,CHILLED WATER LOOP CHW SUPPLY OUTLET PIPE INLET,CONNECTOR:MIXER,CHILLED WATER LOOP CHW SUPPLY MIXER,Outlet,1
 Non-Parent Node Connection,CHILLED WATER LOOP CHW SUPPLY BYPASS OUTLET,CONNECTOR:MIXER,CHILLED WATER LOOP CHW SUPPLY MIXER,Inlet,1
 Non-Parent Node Connection,MAIN CHILLER CHW OUTLET,CONNECTOR:MIXER,CHILLED WATER LOOP CHW SUPPLY MIXER,Inlet,1
 Non-Parent Node Connection,CHILLED WATER LOOP CNDW DEMAND INLET PIPE OUTLET,CONNECTOR:SPLITTER,CHILLED WATER LOOP CNDW DEMAND SPLITTER,Inlet,1
 Non-Parent Node Connection,CHILLED WATER LOOP CNDW DEMAND BYPASS INLET,CONNECTOR:SPLITTER,CHILLED WATER LOOP CNDW DEMAND SPLITTER,Outlet,1
 Non-Parent Node Connection,MAIN CHILLER CND INLET,CONNECTOR:SPLITTER,CHILLED WATER LOOP CNDW DEMAND SPLITTER,Outlet,1
 Non-Parent Node Connection,CHILLED WATER LOOP CNDW DEMAND OUTLET PIPE INLET,CONNECTOR:MIXER,CHILLED WATER LOOP CNDW DEMAND MIXER,Outlet,1
 Non-Parent Node Connection,CHILLED WATER LOOP CNDW DEMAND BYPASS OUTLET,CONNECTOR:MIXER,CHILLED WATER LOOP CNDW DEMAND MIXER,Inlet,1
 Non-Parent Node Connection,MAIN CHILLER CND OUTLET,CONNECTOR:MIXER,CHILLED WATER LOOP CNDW DEMAND MIXER,Inlet,1
 Non-Parent Node Connection,CHILLED WATER LOOP CNDW PUMP OUTLET,CONNECTOR:SPLITTER,CHILLED WATER LOOP CNDW SUPPLY SPLITTER,Inlet,1
 Non-Parent Node Connection,CHILLED WATER LOOP CNDW SUPPLY BYPASS INLET,CONNECTOR:SPLITTER,CHILLED WATER LOOP CNDW SUPPLY SPLITTER,Outlet,1
 Non-Parent Node Connection,MAIN TOWER CNDW INLET,CONNECTOR:SPLITTER,CHILLED WATER LOOP CNDW SUPPLY SPLITTER,Outlet,1
 Non-Parent Node Connection,CHILLED WATER LOOP CNDW SUPPLY OUTLET PIPE INLET,CONNECTOR:MIXER,CHILLED WATER LOOP CNDW SUPPLY MIXER,Outlet,1
 Non-Parent Node Connection,CHILLED WATER LOOP CNDW SUPPLY BYPASS OUTLET,CONNECTOR:MIXER,CHILLED WATER LOOP CNDW SUPPLY MIXER,Inlet,1
 Non-Parent Node Connection,MAIN TOWER CNDW OUTLET,CONNECTOR:MIXER,CHILLED WATER LOOP CNDW SUPPLY MIXER,Inlet,1
 Non-Parent Node Connection,DOAS SUPPLY PATH INLET,AIRLOOPHVAC:ZONESPLITTER,DOAS ZONE SPLITTER,Inlet,1
 Non-Parent Node Connection,SPACE1-1 ZONE EQUIP INLET,AIRLOOPHVAC:ZONESPLITTER,DOAS ZONE SPLITTER,Outlet,1
 Non-Parent Node Connection,SPACE2-1 ZONE EQUIP INLET,AIRLOOPHVAC:ZONESPLITTER,DOAS ZONE SPLITTER,Outlet,1
 Non-Parent Node Connection,SPACE3-1 ZONE EQUIP INLET,AIRLOOPHVAC:ZONESPLITTER,DOAS ZONE SPLITTER,Outlet,1
 Non-Parent Node Connection,SPACE4-1 ZONE EQUIP INLET,AIRLOOPHVAC:ZONESPLITTER,DOAS ZONE SPLITTER,Outlet,1
 Non-Parent Node Connection,SPACE5-1 ZONE EQUIP INLET,AIRLOOPHVAC:ZONESPLITTER,DOAS ZONE SPLITTER,Outlet,1
 Non-Parent Node Connection,SPACE1-1 DOAS SUPPLY INLET,AIRTERMINAL:SINGLEDUCT:VAV:NOREHEAT,SPACE1-1 DOAS AIR TERMINAL,Outlet,1
 Non-Parent Node Connection,SPACE1-1 ZONE EQUIP INLET,AIRTERMINAL:SINGLEDUCT:VAV:NOREHEAT,SPACE1-1 DOAS AIR TERMINAL,Inlet,1
 Non-Parent Node Connection,SPACE2-1 DOAS SUPPLY INLET,AIRTERMINAL:SINGLEDUCT:VAV:NOREHEAT,SPACE2-1 DOAS AIR TERMINAL,Outlet,1
 Non-Parent Node Connection,SPACE2-1 ZONE EQUIP INLET,AIRTERMINAL:SINGLEDUCT:VAV:NOREHEAT,SPACE2-1 DOAS AIR TERMINAL,Inlet,1
 Non-Parent Node Connection,SPACE3-1 DOAS SUPPLY INLET,AIRTERMINAL:SINGLEDUCT:VAV:NOREHEAT,SPACE3-1 DOAS AIR TERMINAL,Outlet,1
 Non-Parent Node Connection,SPACE3-1 ZONE EQUIP INLET,AIRTERMINAL:SINGLEDUCT:VAV:NOREHEAT,SPACE3-1 DOAS AIR TERMINAL,Inlet,1
 Non-Parent Node Connection,SPACE4-1 DOAS SUPPLY INLET,AIRTERMINAL:SINGLEDUCT:VAV:NOREHEAT,SPACE4-1 DOAS AIR TERMINAL,Outlet,1
 Non-Parent Node Connection,SPACE4-1 ZONE EQUIP INLET,AIRTERMINAL:SINGLEDUCT:VAV:NOREHEAT,SPACE4-1 DOAS AIR TERMINAL,Inlet,1
 Non-Parent Node Connection,SPACE5-1 DOAS SUPPLY INLET,AIRTERMINAL:SINGLEDUCT:VAV:NOREHEAT,SPACE5-1 DOAS AIR TERMINAL,Outlet,1
 Non-Parent Node Connection,SPACE5-1 ZONE EQUIP INLET,AIRTERMINAL:SINGLEDUCT:VAV:NOREHEAT,SPACE5-1 DOAS AIR TERMINAL,Inlet,1
 Non-Parent Node Connection,SPACE1-1 MIXED AIR OUTLET,OUTDOORAIR:MIXER,SPACE1-1 OA MIXING BOX,Outlet,1
 Non-Parent Node Connection,SPACE1-1 OUTSIDE AIR INLET,OUTDOORAIR:MIXER,SPACE1-1 OA MIXING BOX,Inlet,1
 Non-Parent Node Connection,SPACE1-1 RELIEF AIR OUTLET,OUTDOORAIR:MIXER,SPACE1-1 OA MIXING BOX,ReliefAir,1
 Non-Parent Node Connection,SPACE1-1 FAN COIL RETURN,OUTDOORAIR:MIXER,SPACE1-1 OA MIXING BOX,Inlet,1
 Non-Parent Node Connection,SPACE2-1 MIXED AIR OUTLET,OUTDOORAIR:MIXER,SPACE2-1 OA MIXING BOX,Outlet,1
 Non-Parent Node Connection,SPACE2-1 OUTSIDE AIR INLET,OUTDOORAIR:MIXER,SPACE2-1 OA MIXING BOX,Inlet,1
 Non-Parent Node Connection,SPACE2-1 RELIEF AIR OUTLET,OUTDOORAIR:MIXER,SPACE2-1 OA MIXING BOX,ReliefAir,1
 Non-Parent Node Connection,SPACE2-1 FAN COIL RETURN,OUTDOORAIR:MIXER,SPACE2-1 OA MIXING BOX,Inlet,1
 Non-Parent Node Connection,SPACE3-1 MIXED AIR OUTLET,OUTDOORAIR:MIXER,SPACE3-1 OA MIXING BOX,Outlet,1
 Non-Parent Node Connection,SPACE3-1 OUTSIDE AIR INLET,OUTDOORAIR:MIXER,SPACE3-1 OA MIXING BOX,Inlet,1
 Non-Parent Node Connection,SPACE3-1 RELIEF AIR OUTLET,OUTDOORAIR:MIXER,SPACE3-1 OA MIXING BOX,ReliefAir,1
 Non-Parent Node Connection,SPACE3-1 FAN COIL RETURN,OUTDOORAIR:MIXER,SPACE3-1 OA MIXING BOX,Inlet,1
 Non-Parent Node Connection,SPACE4-1 MIXED AIR OUTLET,OUTDOORAIR:MIXER,SPACE4-1 OA MIXING BOX,Outlet,1
 Non-Parent Node Connection,SPACE4-1 OUTSIDE AIR INLET,OUTDOORAIR:MIXER,SPACE4-1 OA MIXING BOX,Inlet,1
 Non-Parent Node Connection,SPACE4-1 RELIEF AIR OUTLET,OUTDOORAIR:MIXER,SPACE4-1 OA MIXING BOX,ReliefAir,1
 Non-Parent Node Connection,SPACE4-1 FAN COIL RETURN,OUTDOORAIR:MIXER,SPACE4-1 OA MIXING BOX,Inlet,1
 Non-Parent Node Connection,SPACE5-1 MIXED AIR OUTLET,OUTDOORAIR:MIXER,SPACE5-1 OA MIXING BOX,Outlet,1
 Non-Parent Node Connection,SPACE5-1 OUTSIDE AIR INLET,OUTDOORAIR:MIXER,SPACE5-1 OA MIXING BOX,Inlet,1
 Non-Parent Node Connection,SPACE5-1 RELIEF AIR OUTLET,OUTDOORAIR:MIXER,SPACE5-1 OA MIXING BOX,ReliefAir,1
 Non-Parent Node Connection,SPACE5-1 FAN COIL RETURN,OUTDOORAIR:MIXER,SPACE5-1 OA MIXING BOX,Inlet,1
 Non-Parent Node Connection,DOAS MIXED AIR OUTLET,OUTDOORAIR:MIXER,DOAS OA MIXING BOX,Outlet,1
 Non-Parent Node Connection,DOAS HEAT RECOVERY SUPPLY OUTLET,OUTDOORAIR:MIXER,DOAS OA MIXING BOX,Inlet,1
 Non-Parent Node Connection,DOAS RELIEF AIR OUTLET,OUTDOORAIR:MIXER,DOAS OA MIXING BOX,ReliefAir,1
 Non-Parent Node Connection,DOAS AIR LOOP INLET,OUTDOORAIR:MIXER,DOAS OA MIXING BOX,Inlet,1
 Non-Parent Node Connection,SPACE1-1 HEATING COIL HW INLET,COIL:HEATING:WATER,SPACE1-1 HEATING COIL,Inlet,2
 Non-Parent Node Connection,SPACE1-1 HEATING COIL HW OUTLET,COIL:HEATING:WATER,SPACE1-1 HEATING COIL,Outlet,2
 Non-Parent Node Connection,SPACE1-1 COOLING COIL OUTLET,COIL:HEATING:WATER,SPACE1-1 HEATING COIL,Inlet,1
 Non-Parent Node Connection,SPACE1-1 SUPPLY INLET,COIL:HEATING:WATER,SPACE1-1 HEATING COIL,Outlet,1
 Non-Parent Node Connection,SPACE2-1 HEATING COIL HW INLET,COIL:HEATING:WATER,SPACE2-1 HEATING COIL,Inlet,2
 Non-Parent Node Connection,SPACE2-1 HEATING COIL HW OUTLET,COIL:HEATING:WATER,SPACE2-1 HEATING COIL,Outlet,2
 Non-Parent Node Connection,SPACE2-1 COOLING COIL OUTLET,COIL:HEATING:WATER,SPACE2-1 HEATING COIL,Inlet,1
 Non-Parent Node Connection,SPACE2-1 SUPPLY INLET,COIL:HEATING:WATER,SPACE2-1 HEATING COIL,Outlet,1
 Non-Parent Node Connection,SPACE3-1 HEATING COIL HW INLET,COIL:HEATING:WATER,SPACE3-1 HEATING COIL,Inlet,2
 Non-Parent Node Connection,SPACE3-1 HEATING COIL HW OUTLET,COIL:HEATING:WATER,SPACE3-1 HEATING COIL,Outlet,2
 Non-Parent Node Connection,SPACE3-1 COOLING COIL OUTLET,COIL:HEATING:WATER,SPACE3-1 HEATING COIL,Inlet,1
 Non-Parent Node Connection,SPACE3-1 SUPPLY INLET,COIL:HEATING:WATER,SPACE3-1 HEATING COIL,Outlet,1
 Non-Parent Node Connection,SPACE4-1 HEATING COIL HW INLET,COIL:HEATING:WATER,SPACE4-1 HEATING COIL,Inlet,2
 Non-Parent Node Connection,SPACE4-1 HEATING COIL HW OUTLET,COIL:HEATING:WATER,SPACE4-1 HEATING COIL,Outlet,2
 Non-Parent Node Connection,SPACE4-1 COOLING COIL OUTLET,COIL:HEATING:WATER,SPACE4-1 HEATING COIL,Inlet,1
 Non-Parent Node Connection,SPACE4-1 SUPPLY INLET,COIL:HEATING:WATER,SPACE4-1 HEATING COIL,Outlet,1
 Non-Parent Node Connection,SPACE5-1 HEATING COIL HW INLET,COIL:HEATING:WATER,SPACE5-1 HEATING COIL,Inlet,2
 Non-Parent Node Connection,SPACE5-1 HEATING COIL HW OUTLET,COIL:HEATING:WATER,SPACE5-1 HEATING COIL,Outlet,2
 Non-Parent Node Connection,SPACE5-1 COOLING COIL OUTLET,COIL:HEATING:WATER,SPACE5-1 HEATING COIL,Inlet,1
 Non-Parent Node Connection,SPACE5-1 SUPPLY INLET,COIL:HEATING:WATER,SPACE5-1 HEATING COIL,Outlet,1
 Non-Parent Node Connection,DOAS HEATING COIL HW INLET,COIL:HEATING:WATER,DOAS HEATING COIL,Inlet,2
 Non-Parent Node Connection,DOAS HEATING COIL HW OUTLET,COIL:HEATING:WATER,DOAS HEATING COIL,Outlet,2
 Non-Parent Node Connection,DOAS COOLING COIL OUTLET,COIL:HEATING:WATER,DOAS HEATING COIL,Inlet,1
 Non-Parent Node Connection,DOAS HEATING COIL OUTLET,COIL:HEATING:WATER,DOAS HEATING COIL,Outlet,1
 Non-Parent Node Connection,SPACE1-1 COOLING COIL CHW INLET,COIL:COOLING:WATER,SPACE1-1 COOLING COIL,Inlet,2
 Non-Parent Node Connection,SPACE1-1 COOLING COIL CHW OUTLET,COIL:COOLING:WATER,SPACE1-1 COOLING COIL,Outlet,2
 Non-Parent Node Connection,SPACE1-1 SUPPLY FAN OUTLET,COIL:COOLING:WATER,SPACE1-1 COOLING COIL,Inlet,1
 Non-Parent Node Connection,SPACE1-1 COOLING COIL OUTLET,COIL:COOLING:WATER,SPACE1-1 COOLING COIL,Outlet,1
 Non-Parent Node Connection,SPACE2-1 COOLING COIL CHW INLET,COIL:COOLING:WATER,SPACE2-1 COOLING COIL,Inlet,2
 Non-Parent Node Connection,SPACE2-1 COOLING COIL CHW OUTLET,COIL:COOLING:WATER,SPACE2-1 COOLING COIL,Outlet,2
 Non-Parent Node Connection,SPACE2-1 SUPPLY FAN OUTLET,COIL:COOLING:WATER,SPACE2-1 COOLING COIL,Inlet,1
 Non-Parent Node Connection,SPACE2-1 COOLING COIL OUTLET,COIL:COOLING:WATER,SPACE2-1 COOLING COIL,Outlet,1
 Non-Parent Node Connection,SPACE3-1 COOLING COIL CHW INLET,COIL:COOLING:WATER,SPACE3-1 COOLING COIL,Inlet,2
 Non-Parent Node Connection,SPACE3-1 COOLING COIL CHW OUTLET,COIL:COOLING:WATER,SPACE3-1 COOLING COIL,Outlet,2
 Non-Parent Node Connection,SPACE3-1 SUPPLY FAN OUTLET,COIL:COOLING:WATER,SPACE3-1 COOLING COIL,Inlet,1
 Non-Parent Node Connection,SPACE3-1 COOLING COIL OUTLET,COIL:COOLING:WATER,SPACE3-1 COOLING COIL,Outlet,1
 Non-Parent Node Connection,SPACE4-1 COOLING COIL CHW INLET,COIL:COOLING:WATER,SPACE4-1 COOLING COIL,Inlet,2
 Non-Parent Node Connection,SPACE4-1 COOLING COIL CHW OUTLET,COIL:COOLING:WATER,SPACE4-1 COOLING COIL,Outlet,2
 Non-Parent Node Connection,SPACE4-1 SUPPLY FAN OUTLET,COIL:COOLING:WATER,SPACE4-1 COOLING COIL,Inlet,1
 Non-Parent Node Connection,SPACE4-1 COOLING COIL OUTLET,COIL:COOLING:WATER,SPACE4-1 COOLING COIL,Outlet,1
 Non-Parent Node Connection,SPACE5-1 COOLING COIL CHW INLET,COIL:COOLING:WATER,SPACE5-1 COOLING COIL,Inlet,2
 Non-Parent Node Connection,SPACE5-1 COOLING COIL CHW OUTLET,COIL:COOLING:WATER,SPACE5-1 COOLING COIL,Outlet,2
 Non-Parent Node Connection,SPACE5-1 SUPPLY FAN OUTLET,COIL:COOLING:WATER,SPACE5-1 COOLING COIL,Inlet,1
 Non-Parent Node Connection,SPACE5-1 COOLING COIL OUTLET,COIL:COOLING:WATER,SPACE5-1 COOLING COIL,Outlet,1
 Non-Parent Node Connection,DOAS COOLING COIL CHW INLET,COIL:COOLING:WATER,DOAS COOLING COIL,Inlet,2
 Non-Parent Node Connection,DOAS COOLING COIL CHW OUTLET,COIL:COOLING:WATER,DOAS COOLING COIL,Outlet,2
 Non-Parent Node Connection,DOAS MIXED AIR OUTLET,COIL:COOLING:WATER,DOAS COOLING COIL,Inlet,1
 Non-Parent Node Connection,DOAS COOLING COIL OUTLET,COIL:COOLING:WATER,DOAS COOLING COIL,Outlet,1
 Non-Parent Node Connection,DOAS HEATING COIL OUTLET,FAN:VARIABLEVOLUME,DOAS SUPPLY FAN,Inlet,1
 Non-Parent Node Connection,DOAS SUPPLY FAN OUTLET,FAN:VARIABLEVOLUME,DOAS SUPPLY FAN,Outlet,1
 Non-Parent Node Connection,SPACE1-1 MIXED AIR OUTLET,FAN:ONOFF,SPACE1-1 SUPPLY FAN,Inlet,1
 Non-Parent Node Connection,SPACE1-1 SUPPLY FAN OUTLET,FAN:ONOFF,SPACE1-1 SUPPLY FAN,Outlet,1
 Non-Parent Node Connection,SPACE2-1 MIXED AIR OUTLET,FAN:ONOFF,SPACE2-1 SUPPLY FAN,Inlet,1
 Non-Parent Node Connection,SPACE2-1 SUPPLY FAN OUTLET,FAN:ONOFF,SPACE2-1 SUPPLY FAN,Outlet,1
 Non-Parent Node Connection,SPACE3-1 MIXED AIR OUTLET,FAN:ONOFF,SPACE3-1 SUPPLY FAN,Inlet,1
 Non-Parent Node Connection,SPACE3-1 SUPPLY FAN OUTLET,FAN:ONOFF,SPACE3-1 SUPPLY FAN,Outlet,1
 Non-Parent Node Connection,SPACE4-1 MIXED AIR OUTLET,FAN:ONOFF,SPACE4-1 SUPPLY FAN,Inlet,1
 Non-Parent Node Connection,SPACE4-1 SUPPLY FAN OUTLET,FAN:ONOFF,SPACE4-1 SUPPLY FAN,Outlet,1
 Non-Parent Node Connection,SPACE5-1 MIXED AIR OUTLET,FAN:ONOFF,SPACE5-1 SUPPLY FAN,Inlet,1
 Non-Parent Node Connection,SPACE5-1 SUPPLY FAN OUTLET,FAN:ONOFF,SPACE5-1 SUPPLY FAN,Outlet,1
 Non-Parent Node Connection,DOAS COOLING COIL OUTLET,CONTROLLER:WATERCOIL,DOAS COOLING COIL CONTROLLER,Sensor,1
 Non-Parent Node Connection,DOAS COOLING COIL CHW INLET,CONTROLLER:WATERCOIL,DOAS COOLING COIL CONTROLLER,Actuator,1
 Non-Parent Node Connection,DOAS HEATING COIL OUTLET,CONTROLLER:WATERCOIL,DOAS HEATING COIL CONTROLLER,Sensor,1
 Non-Parent Node Connection,DOAS HEATING COIL HW INLET,CONTROLLER:WATERCOIL,DOAS HEATING COIL CONTROLLER,Actuator,1
 Non-Parent Node Connection,DOAS RETURN AIR OUTLET,AIRLOOPHVAC:ZONEMIXER,DOAS ZONE MIXER,Outlet,1
 Non-Parent Node Connection,SPACE1-1 RETURN OUTLET,AIRLOOPHVAC:ZONEMIXER,DOAS ZONE MIXER,Inlet,1
 Non-Parent Node Connection,SPACE2-1 RETURN OUTLET,AIRLOOPHVAC:ZONEMIXER,DOAS ZONE MIXER,Inlet,1
 Non-Parent Node Connection,SPACE3-1 RETURN OUTLET,AIRLOOPHVAC:ZONEMIXER,DOAS ZONE MIXER,Inlet,1
 Non-Parent Node Connection,SPACE4-1 RETURN OUTLET,AIRLOOPHVAC:ZONEMIXER,DOAS ZONE MIXER,Inlet,1
 Non-Parent Node Connection,SPACE5-1 RETURN OUTLET,AIRLOOPHVAC:ZONEMIXER,DOAS ZONE MIXER,Inlet,1
 Non-Parent Node Connection,DOAS MIXED AIR OUTLET,CONTROLLER:OUTDOORAIR,DOAS OA CONTROLLER,Sensor,1
 Non-Parent Node Connection,DOAS OUTDOOR AIR INLET,CONTROLLER:OUTDOORAIR,DOAS OA CONTROLLER,Actuator,1
 Non-Parent Node Connection,DOAS RELIEF AIR OUTLET,CONTROLLER:OUTDOORAIR,DOAS OA CONTROLLER,Actuator,1
 Non-Parent Node Connection,DOAS AIR LOOP INLET,CONTROLLER:OUTDOORAIR,DOAS OA CONTROLLER,Sensor,1
 Non-Parent Node Connection,DOAS OUTDOOR AIR INLET,HEATEXCHANGER:AIRTOAIR:SENSIBLEANDLATENT,DOAS HEAT RECOVERY,Inlet,1
 Non-Parent Node Connection,DOAS HEAT RECOVERY SUPPLY OUTLET,HEATEXCHANGER:AIRTOAIR:SENSIBLEANDLATENT,DOAS HEAT RECOVERY,Outlet,1
 Non-Parent Node Connection,DOAS RELIEF AIR OUTLET,HEATEXCHANGER:AIRTOAIR:SENSIBLEANDLATENT,DOAS HEAT RECOVERY,Inlet,2
 Non-Parent Node Connection,DOAS HEAT RECOVERY RELIEF OUTLET,HEATEXCHANGER:AIRTOAIR:SENSIBLEANDLATENT,DOAS HEAT RECOVERY,Outlet,2
 Non-Parent Node Connection,MAIN BOILER HW INLET,BOILER:HOTWATER,MAIN BOILER,Inlet,1
 Non-Parent Node Connection,MAIN BOILER HW OUTLET,BOILER:HOTWATER,MAIN BOILER,Outlet,1
 Non-Parent Node Connection,MAIN CHILLER CHW INLET,CHILLER:ELECTRIC:EIR,MAIN CHILLER,Inlet,1
 Non-Parent Node Connection,MAIN CHILLER CHW OUTLET,CHILLER:ELECTRIC:EIR,MAIN CHILLER,Outlet,1
 Non-Parent Node Connection,MAIN CHILLER CND INLET,CHILLER:ELECTRIC:EIR,MAIN CHILLER,Inlet,2
 Non-Parent Node Connection,MAIN CHILLER CND OUTLET,CHILLER:ELECTRIC:EIR,MAIN CHILLER,Outlet,2
 Non-Parent Node Connection,MAIN TOWER CNDW INLET,COOLINGTOWER:SINGLESPEED,MAIN TOWER,Inlet,1
 Non-Parent Node Connection,MAIN TOWER CNDW OUTLET,COOLINGTOWER:SINGLESPEED,MAIN TOWER,Outlet,1
 Non-Parent Node Connection,MAIN TOWER COOLING TOWER OUTDOOR AIR INLET NODE,COOLINGTOWER:SINGLESPEED,MAIN TOWER,OutsideAirReference,1
 Non-Parent Node Connection,CHILLED WATER LOOP CNDW SUPPLY INLET,PUMP:VARIABLESPEED,CHILLED WATER LOOP CNDW SUPPLY PUMP,Inlet,1
 Non-Parent Node Connection,CHILLED WATER LOOP CNDW PUMP OUTLET,PUMP:VARIABLESPEED,CHILLED WATER LOOP CNDW SUPPLY PUMP,Outlet,1
 Non-Parent Node Connection,HOT WATER LOOP HW SUPPLY INLET,PUMP:CONSTANTSPEED,HOT WATER LOOP HW SUPPLY PUMP,Inlet,1
 Non-Parent Node Connection,HOT WATER LOOP HW PUMP OUTLET,PUMP:CONSTANTSPEED,HOT WATER LOOP HW SUPPLY PUMP,Outlet,1
 Non-Parent Node Connection,CHILLED WATER LOOP CHW SUPPLY INLET,PUMP:CONSTANTSPEED,CHILLED WATER LOOP CHW SUPPLY PUMP,Inlet,1
 Non-Parent Node Connection,CHILLED WATER LOOP CHW PUMP OUTLET,PUMP:CONSTANTSPEED,CHILLED WATER LOOP CHW SUPPLY PUMP,Outlet,1
